18
     RDKit          3D

 58 61  0  0  1  0  0  0  0  0999 V2000
  -13.4898    0.6927  -23.5150 C   0  0  0  0  0  0  0  0  0  0  0  0
  -13.6139    2.0668  -23.3310 C   0  0  0  0  0  0  0  0  0  0  0  0
  -14.3485    2.8323  -24.2442 C   0  0  0  0  0  0  0  0  0  0  0  0
  -14.9509    2.2124  -25.3441 C   0  0  0  0  0  0  0  0  0  0  0  0
  -14.8079    0.8431  -25.5378 C   0  0  0  0  0  0  0  0  0  0  0  0
  -14.0829    0.0884  -24.6204 C   0  0  0  0  0  0  0  0  0  0  0  0
  -14.4976    4.3603  -24.0755 C   0  0  2  0  0  0  0  0  0  0  0  0
  -13.4475    5.2611  -24.7921 C   0  0  2  0  0  0  0  0  0  0  0  0
  -12.3241    6.0907  -27.4700 C   0  0  2  0  0  0  0  0  0  0  0  0
  -14.7545    4.7495  -22.6814 N   0  0  0  0  0  0  0  0  0  0  0  0
  -13.7632    5.1652  -21.8793 N   0  0  0  0  0  0  0  0  0  0  0  0
  -14.3347    5.3709  -20.7153 C   0  0  0  0  0  0  0  0  0  0  0  0
  -15.7118    5.0727  -20.7167 C   0  0  0  0  0  0  0  0  0  0  0  0
  -15.9515    4.6774  -22.0195 C   0  0  0  0  0  0  0  0  0  0  0  0
  -16.6564    5.1176  -19.7059 N   0  0  0  0  0  0  0  0  0  0  0  0
  -16.4210    5.4177  -18.4067 C   0  0  0  0  0  0  0  0  0  0  0  0
  -15.3180    5.7289  -17.9530 O   0  0  0  0  0  0  0  0  0  0  0  0
  -17.5819    5.3352  -17.5364 C   0  0  0  0  0  0  0  0  0  0  0  0
  -17.5997    5.7517  -16.1797 C   0  0  0  0  0  0  0  0  0  0  0  0
  -18.8534    5.3920  -15.7099 C   0  0  0  0  0  0  0  0  0  0  0  0
  -19.5080    4.8636  -16.7811 N   0  0  0  0  0  0  0  0  0  0  0  0
  -18.7486    4.8072  -17.8765 N   0  0  0  0  0  0  0  0  0  0  0  0
  -19.3932    5.5761  -14.3021 C   0  0  2  0  0  0  0  0  0  0  0  0
  -18.2072    5.7966  -13.3120 C   0  0  1  0  0  0  0  0  0  0  0  0
  -17.2148    6.8342  -13.9227 C   0  0  2  0  0  0  0  0  0  0  0  0
  -16.5662    6.4148  -15.2706 C   0  0  2  0  0  0  0  0  0  0  0  0
  -18.7767    6.3763  -12.0002 C   0  0  1  0  0  0  0  0  0  0  0  0
  -17.4785    4.4567  -13.0510 C   0  0  1  0  0  0  0  0  0  0  0  0
  -12.9242    0.0967  -22.8143 H   0  0  0  0  0  0  0  0  0  0  0  0
  -13.1363    2.5335  -22.4825 H   0  0  0  0  0  0  0  0  0  0  0  0
  -15.5211    2.7912  -26.0577 H   0  0  0  0  0  0  0  0  0  0  0  0
  -15.2426    0.3744  -26.4071 H   0  0  0  0  0  0  0  0  0  0  0  0
  -13.9690   -0.9747  -24.7738 H   0  0  0  0  0  0  0  0  0  0  0  0
  -15.4038    4.6133  -24.6043 H   0  0  0  0  0  0  0  0  0  0  0  0
  -12.4525    5.1924  -24.3597 H   0  0  0  0  0  0  0  0  0  0  0  0
  -13.7674    6.3040  -24.7703 H   0  0  0  0  0  0  0  0  0  0  0  0
  -13.7505    5.7132  -19.8740 H   0  0  0  0  0  0  0  0  0  0  0  0
  -16.8392    4.3292  -22.5251 H   0  0  0  0  0  0  0  0  0  0  0  0
  -17.6051    4.8901  -19.9706 H   0  0  0  0  0  0  0  0  0  0  0  0
  -20.4542    4.4986  -16.7558 H   0  0  0  0  0  0  0  0  0  0  0  0
  -19.9970    4.7252  -13.9965 H   0  0  0  0  0  0  0  0  0  0  0  0
  -20.0571    6.4398  -14.2866 H   0  0  0  0  0  0  0  0  0  0  0  0
  -16.4221    7.0627  -13.2087 H   0  0  0  0  0  0  0  0  0  0  0  0
  -17.7379    7.7803  -14.0739 H   0  0  0  0  0  0  0  0  0  0  0  0
  -16.1201    7.2867  -15.7491 H   0  0  0  0  0  0  0  0  0  0  0  0
  -15.7394    5.7330  -15.0849 H   0  0  0  0  0  0  0  0  0  0  0  0
  -17.9876    6.6155  -11.2869 H   0  0  0  0  0  0  0  0  0  0  0  0
  -19.3488    7.2848  -12.1674 H   0  0  0  0  0  0  0  0  0  0  0  0
  -19.4480    5.6709  -11.5156 H   0  0  0  0  0  0  0  0  0  0  0  0
  -16.6386    4.5918  -12.3694 H   0  0  0  0  0  0  0  0  0  0  0  0
  -18.1450    3.7190  -12.6043 H   0  0  0  0  0  0  0  0  0  0  0  0
  -17.0860    4.0159  -13.9637 H   0  0  0  0  0  0  0  0  0  0  0  0
  -13.3338    4.8074  -26.6123 S   0  0  1  0  0  0  0  0  0  0  0  0
  -12.5669    3.5784  -26.7341 O   0  0  0  0  0  0  0  0  0  0  0  0
  -14.6721    4.8901  -27.1922 O   0  0  0  0  0  0  0  0  0  0  0  0
  -12.8315    7.0462  -27.3886 H   0  0  0  0  0  0  0  0  0  0  0  0
  -12.2990    5.7553  -28.5042 H   0  0  0  0  0  0  0  0  0  0  0  0
  -11.3226    6.0900  -27.0521 H   0  0  0  0  0  0  0  0  0  0  0  0
  1  2  1  0
  1  6  2  0
  1 29  1  0
  2  3  2  0
  2 30  1  0
  3  4  1  0
  3  7  1  0
  4  5  2  0
  4 31  1  0
  5  6  1  0
  5 32  1  0
  6 33  1  0
  7  8  1  0
  7 10  1  0
  7 34  1  6
  8 35  1  1
  8 36  1  0
 53  8  1  1
  9 53  1  0
  9 56  1  6
  9 57  1  0
  9 58  1  0
 10 11  1  0
 10 14  1  0
 11 12  2  0
 12 13  1  0
 12 37  1  0
 13 14  2  0
 13 15  1  0
 14 38  1  0
 15 16  1  0
 15 39  1  0
 16 17  2  0
 16 18  1  0
 18 19  1  0
 18 22  2  0
 19 20  2  0
 19 26  1  0
 20 21  1  0
 20 23  1  0
 21 22  1  0
 21 40  1  0
 24 23  1  6
 23 41  1  1
 23 42  1  0
 24 25  1  0
 24 27  1  0
 24 28  1  0
 25 26  1  0
 25 43  1  1
 25 44  1  0
 26 45  1  6
 26 46  1  0
 27 47  1  1
 27 48  1  0
 27 49  1  0
 28 50  1  1
 28 51  1  0
 28 52  1  0
 53 54  2  0
 53 55  2  0
M  END
