1neu
     RDKit          3D

 63 66  0  0  1  0  0  0  0  0999 V2000
  -13.4898    0.6927  -23.5150 C   0  0  0  0  0  0  0  0  0  0  0  0
  -13.6138    2.0669  -23.3311 C   0  0  0  0  0  0  0  0  0  0  0  0
  -14.3483    2.8321  -24.2442 C   0  0  0  0  0  0  0  0  0  0  0  0
  -14.9508    2.2125  -25.3442 C   0  0  0  0  0  0  0  0  0  0  0  0
  -14.8079    0.8431  -25.5378 C   0  0  0  0  0  0  0  0  0  0  0  0
  -14.0829    0.0885  -24.6204 C   0  0  0  0  0  0  0  0  0  0  0  0
  -14.4998    4.3435  -24.0709 C   0  0  2  0  0  0  0  0  0  0  0  0
  -13.3625    5.1334  -24.7688 C   0  0  2  0  0  0  0  0  0  0  0  0
  -13.6584    6.6445  -24.9023 C   0  0  2  0  0  0  0  0  0  0  0  0
  -12.5806    7.3692  -25.5804 N   0  0  0  0  0  0  0  0  0  0  0  0
  -12.7615    8.8050  -25.3999 C   0  0  1  0  0  0  0  0  0  0  0  0
  -12.5168    7.0700  -27.0106 C   0  0  1  0  0  0  0  0  0  0  0  0
  -14.7544    4.7495  -22.6813 N   0  0  0  0  0  0  0  0  0  0  0  0
  -13.7636    5.1650  -21.8794 N   0  0  0  0  0  0  0  0  0  0  0  0
  -14.3343    5.3710  -20.7154 C   0  0  0  0  0  0  0  0  0  0  0  0
  -15.7111    5.0729  -20.7169 C   0  0  0  0  0  0  0  0  0  0  0  0
  -15.9516    4.6773  -22.0196 C   0  0  0  0  0  0  0  0  0  0  0  0
  -16.6575    5.1174  -19.7051 N   0  0  0  0  0  0  0  0  0  0  0  0
  -16.4210    5.4177  -18.4067 C   0  0  0  0  0  0  0  0  0  0  0  0
  -15.3180    5.7289  -17.9530 O   0  0  0  0  0  0  0  0  0  0  0  0
  -17.5819    5.3352  -17.5364 C   0  0  0  0  0  0  0  0  0  0  0  0
  -17.5997    5.7517  -16.1797 C   0  0  0  0  0  0  0  0  0  0  0  0
  -18.8534    5.3920  -15.7099 C   0  0  0  0  0  0  0  0  0  0  0  0
  -19.5080    4.8636  -16.7811 N   0  0  0  0  0  0  0  0  0  0  0  0
  -18.7486    4.8072  -17.8765 N   0  0  0  0  0  0  0  0  0  0  0  0
  -19.3932    5.5761  -14.3021 C   0  0  2  0  0  0  0  0  0  0  0  0
  -18.2072    5.7966  -13.3120 C   0  0  1  0  0  0  0  0  0  0  0  0
  -17.2148    6.8342  -13.9227 C   0  0  2  0  0  0  0  0  0  0  0  0
  -16.5662    6.4148  -15.2706 C   0  0  2  0  0  0  0  0  0  0  0  0
  -18.7767    6.3763  -12.0002 C   0  0  1  0  0  0  0  0  0  0  0  0
  -17.4785    4.4567  -13.0510 C   0  0  1  0  0  0  0  0  0  0  0  0
  -12.9242    0.0967  -22.8143 H   0  0  0  0  0  0  0  0  0  0  0  0
  -13.1364    2.5334  -22.4825 H   0  0  0  0  0  0  0  0  0  0  0  0
  -15.5211    2.7912  -26.0577 H   0  0  0  0  0  0  0  0  0  0  0  0
  -15.2425    0.3744  -26.4071 H   0  0  0  0  0  0  0  0  0  0  0  0
  -13.9690   -0.9747  -24.7738 H   0  0  0  0  0  0  0  0  0  0  0  0
  -15.4037    4.6133  -24.6043 H   0  0  0  0  0  0  0  0  0  0  0  0
  -13.2276    4.7079  -25.7633 H   0  0  0  0  0  0  0  0  0  0  0  0
  -12.4197    4.9797  -24.2405 H   0  0  0  0  0  0  0  0  0  0  0  0
  -13.7850    7.0559  -23.8995 H   0  0  0  0  0  0  0  0  0  0  0  0
  -14.6049    6.8064  -25.4211 H   0  0  0  0  0  0  0  0  0  0  0  0
  -11.9494    9.3575  -25.8736 H   0  0  0  0  0  0  0  0  0  0  0  0
  -13.7042    9.1554  -25.8217 H   0  0  0  0  0  0  0  0  0  0  0  0
  -12.7480    9.0614  -24.3400 H   0  0  0  0  0  0  0  0  0  0  0  0
  -11.7448    7.6688  -27.4963 H   0  0  0  0  0  0  0  0  0  0  0  0
  -12.2597    6.0267  -27.1884 H   0  0  0  0  0  0  0  0  0  0  0  0
  -13.4658    7.2769  -27.5074 H   0  0  0  0  0  0  0  0  0  0  0  0
  -13.7503    5.7132  -19.8741 H   0  0  0  0  0  0  0  0  0  0  0  0
  -16.8393    4.3292  -22.5251 H   0  0  0  0  0  0  0  0  0  0  0  0
  -17.6051    4.8901  -19.9706 H   0  0  0  0  0  0  0  0  0  0  0  0
  -20.4542    4.4986  -16.7558 H   0  0  0  0  0  0  0  0  0  0  0  0
  -19.9970    4.7252  -13.9965 H   0  0  0  0  0  0  0  0  0  0  0  0
  -20.0571    6.4398  -14.2866 H   0  0  0  0  0  0  0  0  0  0  0  0
  -16.4221    7.0627  -13.2087 H   0  0  0  0  0  0  0  0  0  0  0  0
  -17.7379    7.7803  -14.0739 H   0  0  0  0  0  0  0  0  0  0  0  0
  -16.1201    7.2867  -15.7491 H   0  0  0  0  0  0  0  0  0  0  0  0
  -15.7394    5.7330  -15.0849 H   0  0  0  0  0  0  0  0  0  0  0  0
  -17.9876    6.6155  -11.2869 H   0  0  0  0  0  0  0  0  0  0  0  0
  -19.3488    7.2848  -12.1674 H   0  0  0  0  0  0  0  0  0  0  0  0
  -19.4480    5.6709  -11.5156 H   0  0  0  0  0  0  0  0  0  0  0  0
  -16.6386    4.5918  -12.3694 H   0  0  0  0  0  0  0  0  0  0  0  0
  -18.1450    3.7190  -12.6043 H   0  0  0  0  0  0  0  0  0  0  0  0
  -17.0860    4.0159  -13.9637 H   0  0  0  0  0  0  0  0  0  0  0  0
  1  2  1  0
  1  6  2  0
  1 32  1  0
  2  3  2  0
  2 33  1  0
  3  4  1  0
  3  7  1  0
  4  5  2  0
  4 34  1  0
  5  6  1  0
  5 35  1  0
  6 36  1  0
  7  8  1  0
  7 13  1  0
  7 37  1  6
  8  9  1  0
  8 38  1  6
  8 39  1  0
  9 10  1  0
  9 40  1  1
  9 41  1  0
 10 11  1  0
 10 12  1  0
 11 42  1  6
 11 43  1  0
 11 44  1  0
 12 45  1  6
 12 46  1  0
 12 47  1  0
 13 14  1  0
 13 17  1  0
 14 15  2  0
 15 16  1  0
 15 48  1  0
 16 17  2  0
 16 18  1  0
 17 49  1  0
 18 19  1  0
 18 50  1  0
 19 20  2  0
 19 21  1  0
 21 22  1  0
 21 25  2  0
 22 23  2  0
 22 29  1  0
 23 24  1  0
 23 26  1  0
 24 25  1  0
 24 51  1  0
 27 26  1  6
 26 52  1  1
 26 53  1  0
 27 28  1  0
 27 30  1  0
 27 31  1  0
 28 29  1  0
 28 54  1  1
 28 55  1  0
 29 56  1  6
 29 57  1  0
 30 58  1  1
 30 59  1  0
 30 60  1  0
 31 61  1  1
 31 62  1  0
 31 63  1  0
M  END
