19
     RDKit          3D

 65 69  0  0  1  0  0  0  0  0999 V2000
  -13.4898    0.6927  -23.5150 C   0  0  0  0  0  0  0  0  0  0  0  0
  -13.6137    2.0669  -23.3311 C   0  0  0  0  0  0  0  0  0  0  0  0
  -14.3463    2.8338  -24.2446 C   0  0  0  0  0  0  0  0  0  0  0  0
  -14.9508    2.2125  -25.3441 C   0  0  0  0  0  0  0  0  0  0  0  0
  -14.8077    0.8432  -25.5377 C   0  0  0  0  0  0  0  0  0  0  0  0
  -14.0828    0.0885  -24.6204 C   0  0  0  0  0  0  0  0  0  0  0  0
  -14.4997    4.3521  -24.0773 C   0  0  1  0  0  0  0  0  0  0  0  0
  -14.7564    4.7423  -22.6827 N   0  0  0  0  0  0  0  0  0  0  0  0
  -13.7635    5.1650  -21.8793 N   0  0  0  0  0  0  0  0  0  0  0  0
  -14.3343    5.3710  -20.7154 C   0  0  0  0  0  0  0  0  0  0  0  0
  -15.7110    5.0729  -20.7169 C   0  0  0  0  0  0  0  0  0  0  0  0
  -15.9516    4.6774  -22.0196 C   0  0  0  0  0  0  0  0  0  0  0  0
  -16.6576    5.1174  -19.7049 N   0  0  0  0  0  0  0  0  0  0  0  0
  -16.4203    5.4178  -18.4066 C   0  0  0  0  0  0  0  0  0  0  0  0
  -15.3180    5.7289  -17.9532 O   0  0  0  0  0  0  0  0  0  0  0  0
  -17.5819    5.3352  -17.5364 C   0  0  0  0  0  0  0  0  0  0  0  0
  -17.5997    5.7517  -16.1797 C   0  0  0  0  0  0  0  0  0  0  0  0
  -18.8534    5.3920  -15.7099 C   0  0  0  0  0  0  0  0  0  0  0  0
  -19.5080    4.8636  -16.7811 N   0  0  0  0  0  0  0  0  0  0  0  0
  -18.7486    4.8072  -17.8765 N   0  0  0  0  0  0  0  0  0  0  0  0
  -19.3932    5.5761  -14.3021 C   0  0  2  0  0  0  0  0  0  0  0  0
  -18.2072    5.7966  -13.3120 C   0  0  1  0  0  0  0  0  0  0  0  0
  -17.2148    6.8342  -13.9227 C   0  0  2  0  0  0  0  0  0  0  0  0
  -16.5662    6.4148  -15.2706 C   0  0  2  0  0  0  0  0  0  0  0  0
  -18.7767    6.3763  -12.0002 C   0  0  1  0  0  0  0  0  0  0  0  0
  -17.4785    4.4567  -13.0510 C   0  0  1  0  0  0  0  0  0  0  0  0
  -12.9242    0.0967  -22.8143 H   0  0  0  0  0  0  0  0  0  0  0  0
  -13.1364    2.5334  -22.4825 H   0  0  0  0  0  0  0  0  0  0  0  0
  -15.5212    2.7912  -26.0577 H   0  0  0  0  0  0  0  0  0  0  0  0
  -15.2420    0.3747  -26.4072 H   0  0  0  0  0  0  0  0  0  0  0  0
  -13.9690   -0.9746  -24.7738 H   0  0  0  0  0  0  0  0  0  0  0  0
  -15.4180    4.6106  -24.5958 H   0  0  0  0  0  0  0  0  0  0  0  0
  -12.4278    4.9143  -24.2980 H   0  0  0  0  0  0  0  0  0  0  0  0
  -13.7504    5.7132  -19.8740 H   0  0  0  0  0  0  0  0  0  0  0  0
  -16.8393    4.3292  -22.5252 H   0  0  0  0  0  0  0  0  0  0  0  0
  -17.6051    4.8901  -19.9706 H   0  0  0  0  0  0  0  0  0  0  0  0
  -20.4542    4.4986  -16.7558 H   0  0  0  0  0  0  0  0  0  0  0  0
  -19.9970    4.7252  -13.9965 H   0  0  0  0  0  0  0  0  0  0  0  0
  -20.0571    6.4398  -14.2866 H   0  0  0  0  0  0  0  0  0  0  0  0
  -16.4221    7.0627  -13.2087 H   0  0  0  0  0  0  0  0  0  0  0  0
  -17.7379    7.7803  -14.0739 H   0  0  0  0  0  0  0  0  0  0  0  0
  -16.1201    7.2867  -15.7491 H   0  0  0  0  0  0  0  0  0  0  0  0
  -15.7394    5.7330  -15.0849 H   0  0  0  0  0  0  0  0  0  0  0  0
  -17.9876    6.6155  -11.2869 H   0  0  0  0  0  0  0  0  0  0  0  0
  -19.3488    7.2848  -12.1674 H   0  0  0  0  0  0  0  0  0  0  0  0
  -19.4480    5.6709  -11.5156 H   0  0  0  0  0  0  0  0  0  0  0  0
  -16.6386    4.5918  -12.3694 H   0  0  0  0  0  0  0  0  0  0  0  0
  -18.1450    3.7190  -12.6043 H   0  0  0  0  0  0  0  0  0  0  0  0
  -17.0860    4.0159  -13.9637 H   0  0  0  0  0  0  0  0  0  0  0  0
  -12.4712    7.5903  -25.1862 C   0  0  2  0  0  0  0  0  0  0  0  0
  -13.5970    6.7186  -24.6028 C   0  0  2  0  0  0  0  0  0  0  0  0
  -13.3705    5.1856  -24.7782 C   0  0  2  0  0  0  0  0  0  0  0  0
  -13.2624    4.7966  -26.2823 C   0  0  1  0  0  0  0  0  0  0  0  0
  -12.1359    5.5015  -27.0600 C   0  0  1  0  0  0  0  0  0  0  0  0
  -11.4939    7.3257  -24.7899 H   0  0  0  0  0  0  0  0  0  0  0  0
  -12.6421    8.6518  -25.0331 H   0  0  0  0  0  0  0  0  0  0  0  0
  -14.5560    6.9922  -25.0479 H   0  0  0  0  0  0  0  0  0  0  0  0
  -13.6942    6.9938  -23.5542 H   0  0  0  0  0  0  0  0  0  0  0  0
  -13.0890    3.7253  -26.3810 H   0  0  0  0  0  0  0  0  0  0  0  0
  -14.2233    4.9789  -26.7729 H   0  0  0  0  0  0  0  0  0  0  0  0
  -11.1555    5.3092  -26.6323 H   0  0  0  0  0  0  0  0  0  0  0  0
  -12.1239    5.2201  -28.1101 H   0  0  0  0  0  0  0  0  0  0  0  0
  -12.3812    7.3477  -27.0275 S   0  0  1  0  0  0  0  0  0  0  0  0
  -13.6787    7.6882  -27.6146 O   0  0  0  0  0  0  0  0  0  0  0  0
  -11.1738    7.9993  -27.5300 O   0  0  0  0  0  0  0  0  0  0  0  0
  1  2  1  0
  1  6  2  0
  1 27  1  0
  2  3  2  0
  2 28  1  0
  3  4  1  0
  3  7  1  0
  4  5  2  0
  4 29  1  0
  5  6  1  0
  5 30  1  0
  6 31  1  0
  7  8  1  0
  7 32  1  6
  7 52  1  0
  8  9  1  0
  8 12  1  0
  9 10  2  0
 10 11  1  0
 10 34  1  0
 11 12  2  0
 11 13  1  0
 12 35  1  0
 13 14  1  0
 13 36  1  0
 14 15  2  0
 14 16  1  0
 16 17  1  0
 16 20  2  0
 17 18  2  0
 17 24  1  0
 18 19  1  0
 18 21  1  0
 19 20  1  0
 19 37  1  0
 22 21  1  6
 21 38  1  1
 21 39  1  0
 22 23  1  0
 22 25  1  0
 22 26  1  0
 23 24  1  0
 23 40  1  1
 23 41  1  0
 24 42  1  6
 24 43  1  0
 25 44  1  1
 25 45  1  0
 25 46  1  0
 26 47  1  1
 26 48  1  0
 26 49  1  0
 52 33  1  1
 50 51  1  0
 50 55  1  1
 50 56  1  0
 63 50  1  1
 51 52  1  0
 51 57  1  6
 51 58  1  0
 52 53  1  0
 53 54  1  0
 53 59  1  1
 53 60  1  0
 54 61  1  1
 54 62  1  0
 54 63  1  0
 63 64  2  0
 63 65  2  0
M  END
