10
     RDKit          3D

 34 36  0  0  1  0  0  0  0  0999 V2000
    8.3070   10.5555   22.2975 F   0  0  0  0  0  0  0  0  0  0  0  0
    7.1402   10.7115   22.9335 C   0  0  0  0  0  0  0  0  0  0  0  0
    6.7887   11.8962   23.6179 C   0  0  0  0  0  0  0  0  0  0  0  0
    5.5503   11.9567   24.2921 C   0  0  0  0  0  0  0  0  0  0  0  0
    6.2789    9.6182   22.8977 C   0  0  0  0  0  0  0  0  0  0  0  0
    5.0575    9.6751   23.5692 C   0  0  0  0  0  0  0  0  0  0  0  0
    4.6798   10.8343   24.2736 C   0  0  0  0  0  0  0  0  0  0  0  0
    3.3450   10.8396   25.0022 C   0  0  2  0  0  0  0  0  0  0  0  0
    3.2562    9.6524   25.9852 C   0  0  2  0  0  0  0  0  0  0  0  0
    1.8938    9.4819   26.6586 C   0  0  0  0  0  0  0  0  0  0  0  0
    1.8379    8.7899   27.6731 O   0  0  0  0  0  0  0  0  0  0  0  0
    0.7146   10.1318   26.0105 C   0  0  0  0  0  0  0  0  0  0  0  0
    2.1669   10.8064   24.0137 C   0  0  2  0  0  0  0  0  0  0  0  0
    0.8365   10.7518   24.7412 C   0  0  0  0  0  0  0  0  0  0  0  0
   -0.2113   11.3094   24.0983 N   0  0  0  0  0  0  0  0  0  0  0  0
   -1.3820   11.2531   24.7269 C   0  0  0  0  0  0  0  0  0  0  0  0
   -2.4396   11.7976   24.0565 N   0  0  0  0  0  0  0  0  0  0  0  0
   -1.6223   10.7201   25.9209 N   0  0  0  0  0  0  0  0  0  0  0  0
   -0.5862   10.1573   26.5813 C   0  0  0  0  0  0  0  0  0  0  0  0
    7.4590   12.7488   23.6290 H   0  0  0  0  0  0  0  0  0  0  0  0
    6.5862    8.7396   22.3561 H   0  0  0  0  0  0  0  0  0  0  0  0
    4.4252    8.8039   23.5416 H   0  0  0  0  0  0  0  0  0  0  0  0
    3.2818   11.7611   25.5831 H   0  0  0  0  0  0  0  0  0  0  0  0
    4.0131    9.7514   26.7587 H   0  0  0  0  0  0  0  0  0  0  0  0
    3.4724    8.7129   25.4788 H   0  0  0  0  0  0  0  0  0  0  0  0
    2.2270    9.9171   23.3892 H   0  0  0  0  0  0  0  0  0  0  0  0
    2.2032   11.6604   23.3362 H   0  0  0  0  0  0  0  0  0  0  0  0
   -3.3818   11.7776   24.4428 H   0  0  0  0  0  0  0  0  0  0  0  0
   -2.3127   12.2131   23.1473 H   0  0  0  0  0  0  0  0  0  0  0  0
    5.2785   12.8578   24.8235 H   0  0  0  0  0  0  0  0  0  0  0  0
   -0.9148    9.5588   27.9506 C   0  0  1  0  0  0  0  0  0  0  0  0
   -1.9506    9.6991   28.2513 H   0  0  0  0  0  0  0  0  0  0  0  0
   -0.7165    8.4927   27.9804 H   0  0  0  0  0  0  0  0  0  0  0  0
   -0.2888    9.9718   28.7350 H   0  0  0  0  0  0  0  0  0  0  0  0
  1  2  1  0
  2  3  1  0
  2  5  2  0
  3  4  2  0
  3 20  1  0
  4  7  1  0
  4 30  1  0
  5  6  1  0
  5 21  1  0
  6  7  2  0
  6 22  1  0
  7  8  1  0
  8  9  1  0
  8 13  1  0
  8 23  1  1
  9 10  1  0
  9 24  1  1
  9 25  1  0
 10 11  2  0
 10 12  1  0
 12 14  1  0
 12 19  2  0
 13 14  1  0
 13 26  1  6
 13 27  1  0
 14 15  2  0
 15 16  1  0
 16 17  1  0
 16 18  2  0
 17 28  1  0
 17 29  1  0
 18 19  1  0
 19 31  1  0
 31 32  1  1
 31 33  1  0
 31 34  1  0
M  END
