2
     RDKit          3D

 31 33  0  0  1  0  0  0  0  0999 V2000
    7.1819   10.7459   22.9199 C   0  0  0  0  0  0  0  0  0  0  0  0
    6.8018   11.9104   23.6156 C   0  0  0  0  0  0  0  0  0  0  0  0
    5.5643   11.9635   24.2914 C   0  0  0  0  0  0  0  0  0  0  0  0
    6.3197    9.6382   22.8921 C   0  0  0  0  0  0  0  0  0  0  0  0
    5.0941    9.6836   23.5630 C   0  0  0  0  0  0  0  0  0  0  0  0
    4.6992   10.8402   24.2742 C   0  0  0  0  0  0  0  0  0  0  0  0
    3.3537   10.8305   24.9982 C   0  0  2  0  0  0  0  0  0  0  0  0
    3.2564    9.6447   25.9840 C   0  0  2  0  0  0  0  0  0  0  0  0
    1.8755    9.4866   26.6502 C   0  0  0  0  0  0  0  0  0  0  0  0
    1.7867    8.8116   27.6730 O   0  0  0  0  0  0  0  0  0  0  0  0
    0.7025   10.1380   25.9951 C   0  0  0  0  0  0  0  0  0  0  0  0
    2.1690   10.7928   24.0108 C   0  0  2  0  0  0  0  0  0  0  0  0
    0.8260   10.7531   24.7302 C   0  0  0  0  0  0  0  0  0  0  0  0
   -0.2314   11.3179   24.0991 N   0  0  0  0  0  0  0  0  0  0  0  0
   -1.4050   11.2650   24.7268 C   0  0  0  0  0  0  0  0  0  0  0  0
   -2.4683   11.8048   24.0447 N   0  0  0  0  0  0  0  0  0  0  0  0
   -1.6396   10.7305   25.9237 N   0  0  0  0  0  0  0  0  0  0  0  0
   -0.5903   10.1697   26.5703 C   0  0  0  0  0  0  0  0  0  0  0  0
    7.4632   12.7647   23.6234 H   0  0  0  0  0  0  0  0  0  0  0  0
    6.6063    8.7484   22.3439 H   0  0  0  0  0  0  0  0  0  0  0  0
    4.4459    8.8222   23.5415 H   0  0  0  0  0  0  0  0  0  0  0  0
    3.2946   11.7510   25.5814 H   0  0  0  0  0  0  0  0  0  0  0  0
    4.0192    9.7493   26.7543 H   0  0  0  0  0  0  0  0  0  0  0  0
    3.4953    8.7120   25.4725 H   0  0  0  0  0  0  0  0  0  0  0  0
    2.2424    9.8993   23.3913 H   0  0  0  0  0  0  0  0  0  0  0  0
    2.2232   11.6407   23.3303 H   0  0  0  0  0  0  0  0  0  0  0  0
   -3.4166   11.7926   24.4165 H   0  0  0  0  0  0  0  0  0  0  0  0
   -2.3404   12.2281   23.1377 H   0  0  0  0  0  0  0  0  0  0  0  0
    5.3124   12.8790   24.8112 H   0  0  0  0  0  0  0  0  0  0  0  0
    8.1296   10.6984   22.4089 H   0  0  0  0  0  0  0  0  0  0  0  0
   -0.8048    9.7465   27.5456 H   0  0  0  0  0  0  0  0  0  0  0  0
  1  2  1  0
  1  4  2  0
  1 30  1  0
  2  3  2  0
  2 19  1  0
  3  6  1  0
  3 29  1  0
  4  5  1  0
  4 20  1  0
  5  6  2  0
  5 21  1  0
  6  7  1  0
  7  8  1  0
  7 12  1  0
  7 22  1  1
  8  9  1  0
  8 23  1  1
  8 24  1  0
  9 10  2  0
  9 11  1  0
 11 13  1  0
 11 18  2  0
 12 13  1  0
 12 25  1  6
 12 26  1  0
 13 14  2  0
 14 15  1  0
 15 16  1  0
 15 17  2  0
 16 27  1  0
 16 28  1  0
 17 18  1  0
 18 31  1  0
M  END
