11
     RDKit          3D

 33 35  0  0  1  0  0  0  0  0999 V2000
    8.3070   10.5814   22.2936 F   0  0  0  0  0  0  0  0  0  0  0  0
    7.1431   10.7218   22.9344 C   0  0  0  0  0  0  0  0  0  0  0  0
    6.7930   11.9006   23.6286 C   0  0  0  0  0  0  0  0  0  0  0  0
    5.5559   11.9545   24.3046 C   0  0  0  0  0  0  0  0  0  0  0  0
    6.2846    9.6285   22.8871 C   0  0  0  0  0  0  0  0  0  0  0  0
    5.0614    9.6822   23.5612 C   0  0  0  0  0  0  0  0  0  0  0  0
    4.6841   10.8297   24.2825 C   0  0  0  0  0  0  0  0  0  0  0  0
    3.3469   10.8159   25.0201 C   0  0  2  0  0  0  0  0  0  0  0  0
    3.2487    9.6301   26.0267 C   0  0  2  0  0  0  0  0  0  0  0  0
    1.8674    9.4450   26.6975 C   0  0  0  0  0  0  0  0  0  0  0  0
    1.6682    8.7582   27.7580 N   0  0  0  0  0  0  0  0  0  0  0  0
    2.8815    8.1877   28.2610 O   0  0  0  0  0  0  0  0  0  0  0  0
    0.7222   10.1199   26.0162 C   0  0  0  0  0  0  0  0  0  0  0  0
    2.1719   10.7889   24.0269 C   0  0  2  0  0  0  0  0  0  0  0  0
    0.8411   10.7399   24.7500 C   0  0  0  0  0  0  0  0  0  0  0  0
   -0.2061   11.3053   24.1064 N   0  0  0  0  0  0  0  0  0  0  0  0
   -1.3841   11.2566   24.7286 C   0  0  0  0  0  0  0  0  0  0  0  0
   -2.4453   11.7991   24.0512 N   0  0  0  0  0  0  0  0  0  0  0  0
   -1.6219   10.7287   25.9188 N   0  0  0  0  0  0  0  0  0  0  0  0
   -0.5781   10.1694   26.5673 C   0  0  0  0  0  0  0  0  0  0  0  0
    7.4676   12.7491   23.6415 H   0  0  0  0  0  0  0  0  0  0  0  0
    6.5860    8.7544   22.3368 H   0  0  0  0  0  0  0  0  0  0  0  0
    4.4259    8.8160   23.5201 H   0  0  0  0  0  0  0  0  0  0  0  0
    3.2826   11.7461   25.5863 H   0  0  0  0  0  0  0  0  0  0  0  0
    4.0303    9.7416   26.7730 H   0  0  0  0  0  0  0  0  0  0  0  0
    3.4806    8.6989   25.5105 H   0  0  0  0  0  0  0  0  0  0  0  0
    2.5688    7.5859   28.9304 H   0  0  0  0  0  0  0  0  0  0  0  0
    2.2329    9.9049   23.3960 H   0  0  0  0  0  0  0  0  0  0  0  0
    2.2119   11.6426   23.3489 H   0  0  0  0  0  0  0  0  0  0  0  0
   -3.3923   11.7838   24.4304 H   0  0  0  0  0  0  0  0  0  0  0  0
   -2.3233   12.2188   23.1446 H   0  0  0  0  0  0  0  0  0  0  0  0
    5.2992   12.8592   24.8371 H   0  0  0  0  0  0  0  0  0  0  0  0
   -0.8052    9.7486   27.5340 H   0  0  0  0  0  0  0  0  0  0  0  0
  1  2  1  0
  2  3  1  0
  2  5  2  0
  3  4  2  0
  3 21  1  0
  4  7  1  0
  4 32  1  0
  5  6  1  0
  5 22  1  0
  6  7  2  0
  6 23  1  0
  7  8  1  0
  8  9  1  0
  8 14  1  0
  8 24  1  1
  9 10  1  0
  9 25  1  1
  9 26  1  0
 10 11  2  0
 10 13  1  0
 11 12  1  0
 12 27  1  0
 13 15  1  0
 13 20  2  0
 14 15  1  0
 14 28  1  6
 14 29  1  0
 15 16  2  0
 16 17  1  0
 17 18  1  0
 17 19  2  0
 18 30  1  0
 18 31  1  0
 19 20  1  0
 20 33  1  0
M  END
