3
     RDKit          3D

 34 36  0  0  1  0  0  0  0  0999 V2000
    7.1799   10.7451   22.9211 C   0  0  0  0  0  0  0  0  0  0  0  0
    6.8019   11.9100   23.6156 C   0  0  0  0  0  0  0  0  0  0  0  0
    5.5662   11.9667   24.2931 C   0  0  0  0  0  0  0  0  0  0  0  0
    6.3200    9.6367   22.8897 C   0  0  0  0  0  0  0  0  0  0  0  0
    5.0914    9.6854   23.5659 C   0  0  0  0  0  0  0  0  0  0  0  0
    4.7013   10.8422   24.2753 C   0  0  0  0  0  0  0  0  0  0  0  0
    3.3561   10.8320   24.9982 C   0  0  2  0  0  0  0  0  0  0  0  0
    3.2666    9.6474   25.9798 C   0  0  2  0  0  0  0  0  0  0  0  0
    1.8902    9.4843   26.6450 C   0  0  0  0  0  0  0  0  0  0  0  0
    1.8296    8.8041   27.6641 O   0  0  0  0  0  0  0  0  0  0  0  0
    0.6978   10.1324   26.0046 C   0  0  0  0  0  0  0  0  0  0  0  0
    2.1682   10.7891   24.0118 C   0  0  2  0  0  0  0  0  0  0  0  0
    0.8215   10.7491   24.7364 C   0  0  0  0  0  0  0  0  0  0  0  0
   -0.2360   11.3178   24.1048 N   0  0  0  0  0  0  0  0  0  0  0  0
   -1.4109   11.2656   24.7316 C   0  0  0  0  0  0  0  0  0  0  0  0
   -2.4742   11.8063   24.0423 N   0  0  0  0  0  0  0  0  0  0  0  0
   -1.6453   10.7292   25.9312 N   0  0  0  0  0  0  0  0  0  0  0  0
   -0.6005   10.1616   26.5892 C   0  0  0  0  0  0  0  0  0  0  0  0
    7.4635   12.7632   23.6224 H   0  0  0  0  0  0  0  0  0  0  0  0
    6.6048    8.7505   22.3428 H   0  0  0  0  0  0  0  0  0  0  0  0
    4.4435    8.8242   23.5424 H   0  0  0  0  0  0  0  0  0  0  0  0
    3.2973   11.7510   25.5823 H   0  0  0  0  0  0  0  0  0  0  0  0
    4.0266    9.7510   26.7542 H   0  0  0  0  0  0  0  0  0  0  0  0
    3.5035    8.7131   25.4686 H   0  0  0  0  0  0  0  0  0  0  0  0
    2.2460    9.8952   23.3915 H   0  0  0  0  0  0  0  0  0  0  0  0
    2.2271   11.6365   23.3302 H   0  0  0  0  0  0  0  0  0  0  0  0
   -3.4239   11.7955   24.4115 H   0  0  0  0  0  0  0  0  0  0  0  0
   -2.3458   12.2315   23.1349 H   0  0  0  0  0  0  0  0  0  0  0  0
    5.3204   12.8859   24.8107 H   0  0  0  0  0  0  0  0  0  0  0  0
   -0.9090    9.5641   27.9706 C   0  0  1  0  0  0  0  0  0  0  0  0
   -1.9462    9.6797   28.2807 H   0  0  0  0  0  0  0  0  0  0  0  0
   -0.6817    8.4997   28.0045 H   0  0  0  0  0  0  0  0  0  0  0  0
   -0.2914   10.0101   28.7453 H   0  0  0  0  0  0  0  0  0  0  0  0
    8.1281   10.6960   22.4100 H   0  0  0  0  0  0  0  0  0  0  0  0
  1  2  1  0
  1  4  2  0
  1 34  1  0
  2  3  2  0
  2 19  1  0
  3  6  1  0
  3 29  1  0
  4  5  1  0
  4 20  1  0
  5  6  2  0
  5 21  1  0
  6  7  1  0
  7  8  1  0
  7 12  1  0
  7 22  1  1
  8  9  1  0
  8 23  1  1
  8 24  1  0
  9 10  2  0
  9 11  1  0
 11 13  1  0
 11 18  2  0
 12 13  1  0
 12 25  1  6
 12 26  1  0
 13 14  2  0
 14 15  1  0
 15 16  1  0
 15 17  2  0
 16 27  1  0
 16 28  1  0
 17 18  1  0
 18 30  1  0
 30 31  1  1
 30 32  1  0
 30 33  1  0
M  END
