5j
     RDKit          3D

 37 39  0  0  1  0  0  0  0  0999 V2000
  -14.5408  -14.6809  -27.4266 C   0  0  0  0  0  0  0  0  0  0  0  0
  -15.1132  -15.5177  -26.4722 C   0  0  0  0  0  0  0  0  0  0  0  0
  -14.7044  -13.3048  -27.3063 C   0  0  0  0  0  0  0  0  0  0  0  0
  -15.8742  -14.9988  -25.4176 C   0  0  0  0  0  0  0  0  0  0  0  0
  -14.8911  -16.8868  -26.5868 N   0  0  0  0  0  0  0  0  0  0  0  0
  -15.4397  -12.7832  -26.2439 C   0  0  0  0  0  0  0  0  0  0  0  0
  -16.0344  -13.6233  -25.2944 C   0  0  0  0  0  0  0  0  0  0  0  0
  -16.4950  -15.9671  -24.4303 C   0  0  0  0  0  0  0  0  0  0  0  0
  -16.1742  -17.2514  -24.7211 N   0  0  0  0  0  0  0  0  0  0  0  0
  -17.2293  -15.6907  -23.4802 O   0  0  0  0  0  0  0  0  0  0  0  0
  -15.3919  -17.7329  -25.7536 C   0  0  0  0  0  0  0  0  0  0  0  0
  -15.1935  -19.1767  -25.9036 C   0  0  0  0  0  0  0  0  0  0  0  0
  -15.7171  -20.0873  -24.9770 C   0  0  0  0  0  0  0  0  0  0  0  0
  -15.4999  -21.4444  -25.1481 C   0  0  0  0  0  0  0  0  0  0  0  0
  -14.7646  -21.9029  -26.2437 C   0  0  0  0  0  0  0  0  0  0  0  0
  -14.2557  -20.9991  -27.1718 C   0  0  0  0  0  0  0  0  0  0  0  0
  -14.4659  -19.6473  -27.0038 C   0  0  0  0  0  0  0  0  0  0  0  0
  -14.4055  -23.3746  -26.3452 C   0  0  2  0  0  0  0  0  0  0  0  0
  -13.9239  -23.7668  -27.5968 O   0  0  0  0  0  0  0  0  0  0  0  0
  -15.5738  -11.4520  -26.1559 F   0  0  0  0  0  0  0  0  0  0  0  0
  -16.7468  -13.1168  -24.2658 F   0  0  0  0  0  0  0  0  0  0  0  0
  -15.6169  -24.2896  -26.1690 C   0  0  2  0  0  0  0  0  0  0  0  0
  -13.2517  -23.6147  -25.3809 C   0  0  2  0  0  0  0  0  0  0  0  0
  -13.9617  -15.0925  -28.2405 H   0  0  0  0  0  0  0  0  0  0  0  0
  -14.2559  -12.6338  -28.0270 H   0  0  0  0  0  0  0  0  0  0  0  0
  -16.6485  -17.9225  -24.1319 H   0  0  0  0  0  0  0  0  0  0  0  0
  -16.2723  -19.7684  -24.1074 H   0  0  0  0  0  0  0  0  0  0  0  0
  -15.8727  -22.1291  -24.4009 H   0  0  0  0  0  0  0  0  0  0  0  0
  -13.6612  -21.3335  -28.0098 H   0  0  0  0  0  0  0  0  0  0  0  0
  -14.0502  -18.9732  -27.7410 H   0  0  0  0  0  0  0  0  0  0  0  0
  -13.7104  -24.7072  -27.5608 H   0  0  0  0  0  0  0  0  0  0  0  0
  -16.4411  -23.9644  -26.8041 H   0  0  0  0  0  0  0  0  0  0  0  0
  -15.9573  -24.3033  -25.1362 H   0  0  0  0  0  0  0  0  0  0  0  0
  -15.4052  -25.3303  -26.4226 H   0  0  0  0  0  0  0  0  0  0  0  0
  -12.4373  -22.9141  -25.5585 H   0  0  0  0  0  0  0  0  0  0  0  0
  -12.8543  -24.6142  -25.5164 H   0  0  0  0  0  0  0  0  0  0  0  0
  -13.5571  -23.5063  -24.3395 H   0  0  0  0  0  0  0  0  0  0  0  0
  1  2  2  0
  1  3  1  0
  1 24  1  0
  2  4  1  0
  2  5  1  0
  3  6  2  0
  3 25  1  0
  4  7  2  0
  4  8  1  0
  5 11  2  0
  6  7  1  0
  6 20  1  0
  7 21  1  0
  8  9  1  0
  8 10  2  0
  9 11  1  0
  9 26  1  0
 11 12  1  0
 12 13  2  0
 12 17  1  0
 13 14  1  0
 13 27  1  0
 14 15  2  0
 14 28  1  0
 15 16  1  0
 15 18  1  0
 16 17  2  0
 16 29  1  0
 17 30  1  0
 18 19  1  6
 18 22  1  0
 18 23  1  0
 19 31  1  0
 22 32  1  6
 22 33  1  0
 22 34  1  0
 23 35  1  6
 23 36  1  0
 23 37  1  0
M  END
