5m
     RDKit          3D

 40 42  0  0  1  0  0  0  0  0999 V2000
  -15.2150  -19.1883  -25.8994 C   0  0  0  0  0  0  0  0  0  0  0  0
  -14.4701  -19.6517  -26.9942 C   0  0  0  0  0  0  0  0  0  0  0  0
  -15.7331  -20.1099  -24.9816 C   0  0  0  0  0  0  0  0  0  0  0  0
  -14.2422  -21.0017  -27.1674 C   0  0  0  0  0  0  0  0  0  0  0  0
  -15.4840  -21.4660  -25.1478 C   0  0  0  0  0  0  0  0  0  0  0  0
  -14.9318  -16.8998  -26.5846 N   0  0  0  0  0  0  0  0  0  0  0  0
  -14.7381  -21.9195  -26.2434 C   0  0  0  0  0  0  0  0  0  0  0  0
  -14.3621  -23.3934  -26.3726 C   0  0  1  0  0  0  0  0  0  0  0  0
  -15.1228  -15.5205  -26.4819 C   0  0  0  0  0  0  0  0  0  0  0  0
  -15.8552  -14.9890  -25.4107 C   0  0  0  0  0  0  0  0  0  0  0  0
  -15.4089  -12.7852  -26.2290 C   0  0  0  0  0  0  0  0  0  0  0  0
  -14.6947  -13.2983  -27.3041 C   0  0  0  0  0  0  0  0  0  0  0  0
  -16.0008  -13.6103  -25.2785 C   0  0  0  0  0  0  0  0  0  0  0  0
  -14.5652  -14.6755  -27.4555 C   0  0  0  0  0  0  0  0  0  0  0  0
  -16.5001  -15.9439  -24.4275 C   0  0  0  0  0  0  0  0  0  0  0  0
  -16.1951  -17.2402  -24.7090 N   0  0  0  0  0  0  0  0  0  0  0  0
  -15.4248  -17.7396  -25.7426 C   0  0  0  0  0  0  0  0  0  0  0  0
  -17.2463  -15.6370  -23.4963 O   0  0  0  0  0  0  0  0  0  0  0  0
  -15.5346  -24.3327  -26.0907 C   0  0  2  0  0  0  0  0  0  0  0  0
  -13.9880  -23.7704  -27.6814 O   0  0  0  0  0  0  0  0  0  0  0  0
  -13.1569  -23.6364  -25.4665 C   0  0  2  0  0  0  0  0  0  0  0  0
  -13.8185  -15.1959  -28.6715 C   0  0  2  0  0  0  0  0  0  0  0  0
  -15.5493  -11.4657  -26.1397 F   0  0  0  0  0  0  0  0  0  0  0  0
  -14.0569  -18.9751  -27.7296 H   0  0  0  0  0  0  0  0  0  0  0  0
  -16.3101  -19.7995  -24.1238 H   0  0  0  0  0  0  0  0  0  0  0  0
  -13.6478  -21.3270  -28.0080 H   0  0  0  0  0  0  0  0  0  0  0  0
  -15.8517  -22.1582  -24.4039 H   0  0  0  0  0  0  0  0  0  0  0  0
  -14.2652  -12.6172  -28.0269 H   0  0  0  0  0  0  0  0  0  0  0  0
  -16.5616  -13.1762  -24.4599 H   0  0  0  0  0  0  0  0  0  0  0  0
  -16.6805  -17.9029  -24.1188 H   0  0  0  0  0  0  0  0  0  0  0  0
  -16.3819  -24.0364  -26.6997 H   0  0  0  0  0  0  0  0  0  0  0  0
  -15.8096  -24.3225  -25.0381 H   0  0  0  0  0  0  0  0  0  0  0  0
  -15.3134  -25.3697  -26.3473 H   0  0  0  0  0  0  0  0  0  0  0  0
  -13.7575  -24.7077  -27.6749 H   0  0  0  0  0  0  0  0  0  0  0  0
  -12.3181  -23.0072  -25.7617 H   0  0  0  0  0  0  0  0  0  0  0  0
  -12.8410  -24.6618  -25.5395 H   0  0  0  0  0  0  0  0  0  0  0  0
  -13.3789  -23.4289  -24.4201 H   0  0  0  0  0  0  0  0  0  0  0  0
  -13.8934  -14.5034  -29.5127 H   0  0  0  0  0  0  0  0  0  0  0  0
  -14.2249  -16.1517  -29.0017 H   0  0  0  0  0  0  0  0  0  0  0  0
  -12.7628  -15.3273  -28.4364 H   0  0  0  0  0  0  0  0  0  0  0  0
  1  2  1  0
  1  3  2  0
  1 17  1  0
  2  4  2  0
  2 24  1  0
  3  5  1  0
  3 25  1  0
  4  7  1  0
  4 26  1  0
  5  7  2  0
  5 27  1  0
  6  9  1  0
  6 17  2  0
  7  8  1  0
  8 19  1  0
  8 20  1  6
  8 21  1  0
  9 10  2  0
  9 14  1  0
 10 13  1  0
 10 15  1  0
 11 12  1  0
 11 13  2  0
 11 23  1  0
 12 14  2  0
 12 28  1  0
 13 29  1  0
 14 22  1  0
 15 16  1  0
 15 18  2  0
 16 17  1  0
 16 30  1  0
 19 31  1  6
 19 32  1  0
 19 33  1  0
 20 34  1  0
 21 35  1  6
 21 36  1  0
 21 37  1  0
 22 38  1  6
 22 39  1  0
 22 40  1  0
M  END
