5c
     RDKit          3D

 37 39  0  0  1  0  0  0  0  0999 V2000
  -14.5995  -14.6225  -27.4625 C   0  0  0  0  0  0  0  0  0  0  0  0
  -15.1431  -15.4969  -26.5187 C   0  0  0  0  0  0  0  0  0  0  0  0
  -14.7204  -13.2450  -27.2697 C   0  0  0  0  0  0  0  0  0  0  0  0
  -15.8619  -15.0071  -25.4209 C   0  0  0  0  0  0  0  0  0  0  0  0
  -14.9200  -16.8703  -26.6645 N   0  0  0  0  0  0  0  0  0  0  0  0
  -15.3752  -12.7522  -26.1389 C   0  0  0  0  0  0  0  0  0  0  0  0
  -15.9434  -13.6334  -25.2145 C   0  0  0  0  0  0  0  0  0  0  0  0
  -16.5070  -16.0128  -24.4767 C   0  0  0  0  0  0  0  0  0  0  0  0
  -16.1608  -17.2748  -24.7804 N   0  0  0  0  0  0  0  0  0  0  0  0
  -17.2937  -15.8087  -23.5504 O   0  0  0  0  0  0  0  0  0  0  0  0
  -15.3902  -17.7304  -25.8219 C   0  0  0  0  0  0  0  0  0  0  0  0
  -15.1761  -19.1704  -25.9276 C   0  0  0  0  0  0  0  0  0  0  0  0
  -14.4849  -19.6732  -27.0321 C   0  0  0  0  0  0  0  0  0  0  0  0
  -14.2734  -21.0317  -27.1548 C   0  0  0  0  0  0  0  0  0  0  0  0
  -14.7605  -21.9021  -26.1831 C   0  0  0  0  0  0  0  0  0  0  0  0
  -15.4417  -21.4040  -25.0706 C   0  0  0  0  0  0  0  0  0  0  0  0
  -15.6573  -20.0463  -24.9457 C   0  0  0  0  0  0  0  0  0  0  0  0
  -14.4814  -23.3879  -26.2933 C   0  0  2  0  0  0  0  0  0  0  0  0
  -14.1072  -23.8124  -27.5682 O   0  0  0  0  0  0  0  0  0  0  0  0
  -15.7300  -24.2183  -26.1241 C   0  0  2  0  0  0  0  0  0  0  0  0
  -13.3518  -23.7434  -25.3387 C   0  0  2  0  0  0  0  0  0  0  0  0
  -16.6891  -13.0253  -23.8025 Cl  0  0  0  0  0  0  0  0  0  0  0  0
  -14.0612  -15.0073  -28.3164 H   0  0  0  0  0  0  0  0  0  0  0  0
  -14.2830  -12.5564  -27.9800 H   0  0  0  0  0  0  0  0  0  0  0  0
  -15.4317  -11.6851  -25.9754 H   0  0  0  0  0  0  0  0  0  0  0  0
  -16.6331  -17.9554  -24.2018 H   0  0  0  0  0  0  0  0  0  0  0  0
  -14.1011  -19.0211  -27.8045 H   0  0  0  0  0  0  0  0  0  0  0  0
  -13.7181  -21.3981  -28.0045 H   0  0  0  0  0  0  0  0  0  0  0  0
  -15.7986  -22.0558  -24.2877 H   0  0  0  0  0  0  0  0  0  0  0  0
  -16.1911  -19.7035  -24.0704 H   0  0  0  0  0  0  0  0  0  0  0  0
  -13.9680  -24.7650  -27.5317 H   0  0  0  0  0  0  0  0  0  0  0  0
  -16.5203  -23.8479  -26.7810 H   0  0  0  0  0  0  0  0  0  0  0  0
  -16.0770  -24.2110  -25.0926 H   0  0  0  0  0  0  0  0  0  0  0  0
  -15.5854  -25.2743  -26.3631 H   0  0  0  0  0  0  0  0  0  0  0  0
  -12.5127  -23.0570  -25.4459 H   0  0  0  0  0  0  0  0  0  0  0  0
  -12.9843  -24.7376  -25.5641 H   0  0  0  0  0  0  0  0  0  0  0  0
  -13.6671  -23.7138  -24.2950 H   0  0  0  0  0  0  0  0  0  0  0  0
  1  2  2  0
  1  3  1  0
  1 23  1  0
  2  4  1  0
  2  5  1  0
  3  6  2  0
  3 24  1  0
  4  7  2  0
  4  8  1  0
  5 11  2  0
  6  7  1  0
  6 25  1  0
  7 22  1  0
  8  9  1  0
  8 10  2  0
  9 11  1  0
  9 26  1  0
 11 12  1  0
 12 13  2  0
 12 17  1  0
 13 14  1  0
 13 27  1  0
 14 15  2  0
 14 28  1  0
 15 16  1  0
 15 18  1  0
 16 17  2  0
 16 29  1  0
 17 30  1  0
 18 19  1  6
 18 20  1  0
 18 21  1  0
 19 31  1  0
 20 32  1  6
 20 33  1  0
 20 34  1  0
 21 35  1  1
 21 36  1  0
 21 37  1  0
M  END
