1a
     RDKit          3D

 27 29  0  0  1  0  0  0  0  0999 V2000
  -15.2090  -19.1936  -25.8983 C   0  0  0  0  0  0  0  0  0  0  0  0
  -14.4626  -19.6563  -26.9924 C   0  0  0  0  0  0  0  0  0  0  0  0
  -15.7265  -20.1155  -24.9805 C   0  0  0  0  0  0  0  0  0  0  0  0
  -14.2327  -21.0060  -27.1648 C   0  0  0  0  0  0  0  0  0  0  0  0
  -15.4753  -21.4713  -25.1460 C   0  0  0  0  0  0  0  0  0  0  0  0
  -14.9287  -16.9049  -26.5843 N   0  0  0  0  0  0  0  0  0  0  0  0
  -14.7279  -21.9242  -26.2408 C   0  0  0  0  0  0  0  0  0  0  0  0
  -15.1219  -15.5258  -26.4823 C   0  0  0  0  0  0  0  0  0  0  0  0
  -15.8558  -14.9950  -25.4119 C   0  0  0  0  0  0  0  0  0  0  0  0
  -15.4121  -12.7909  -26.2308 C   0  0  0  0  0  0  0  0  0  0  0  0
  -14.6964  -13.3034  -27.3051 C   0  0  0  0  0  0  0  0  0  0  0  0
  -16.0036  -13.6164  -25.2804 C   0  0  0  0  0  0  0  0  0  0  0  0
  -14.5647  -14.6804  -27.4558 C   0  0  0  0  0  0  0  0  0  0  0  0
  -16.5001  -15.9504  -24.4288 C   0  0  0  0  0  0  0  0  0  0  0  0
  -16.1930  -17.2464  -24.7095 N   0  0  0  0  0  0  0  0  0  0  0  0
  -15.4211  -17.7451  -25.7424 C   0  0  0  0  0  0  0  0  0  0  0  0
  -17.2474  -15.6442  -23.4983 O   0  0  0  0  0  0  0  0  0  0  0  0
  -14.0499  -18.9794  -27.7277 H   0  0  0  0  0  0  0  0  0  0  0  0
  -16.3046  -19.8056  -24.1233 H   0  0  0  0  0  0  0  0  0  0  0  0
  -13.6371  -21.3307  -28.0049 H   0  0  0  0  0  0  0  0  0  0  0  0
  -15.8425  -22.1638  -24.4021 H   0  0  0  0  0  0  0  0  0  0  0  0
  -14.2673  -12.6219  -28.0278 H   0  0  0  0  0  0  0  0  0  0  0  0
  -16.5656  -13.1828  -24.4624 H   0  0  0  0  0  0  0  0  0  0  0  0
  -16.6778  -17.9095  -24.1194 H   0  0  0  0  0  0  0  0  0  0  0  0
  -14.0448  -15.1019  -28.3034 H   0  0  0  0  0  0  0  0  0  0  0  0
  -15.5220  -11.7227  -26.1155 H   0  0  0  0  0  0  0  0  0  0  0  0
  -14.5347  -22.9787  -26.3708 H   0  0  0  0  0  0  0  0  0  0  0  0
  1  2  1  0
  1  3  2  0
  1 16  1  0
  2  4  2  0
  2 18  1  0
  3  5  1  0
  3 19  1  0
  4  7  1  0
  4 20  1  0
  5  7  2  0
  5 21  1  0
  6  8  1  0
  6 16  2  0
  7 27  1  0
  8  9  2  0
  8 13  1  0
  9 12  1  0
  9 14  1  0
 10 11  1  0
 10 12  2  0
 10 26  1  0
 11 13  2  0
 11 22  1  0
 12 23  1  0
 13 25  1  0
 14 15  1  0
 14 17  2  0
 15 16  1  0
 15 24  1  0
M  END
