3a
     RDKit          3D

 39 41  0  0  1  0  0  0  0  0999 V2000
  -14.9571  -16.8627  -26.7096 N   0  0  0  0  0  0  0  0  0  0  0  0
  -15.4243  -17.7325  -25.8730 C   0  0  0  0  0  0  0  0  0  0  0  0
  -16.1468  -17.2682  -24.7949 N   0  0  0  0  0  0  0  0  0  0  0  0
  -16.4732  -15.9969  -24.4692 C   0  0  0  0  0  0  0  0  0  0  0  0
  -17.2308  -15.7548  -23.5324 O   0  0  0  0  0  0  0  0  0  0  0  0
  -15.2514  -19.1881  -26.0136 C   0  0  0  0  0  0  0  0  0  0  0  0
  -15.7368  -20.0609  -25.0338 C   0  0  0  0  0  0  0  0  0  0  0  0
  -15.4892  -21.4169  -25.1180 C   0  0  0  0  0  0  0  0  0  0  0  0
  -14.7208  -21.9351  -26.1582 C   0  0  0  0  0  0  0  0  0  0  0  0
  -14.3207  -21.0837  -27.1965 C   0  0  0  0  0  0  0  0  0  0  0  0
  -14.5791  -19.7200  -27.1202 C   0  0  0  0  0  0  0  0  0  0  0  0
  -14.2647  -23.3997  -26.0598 C   0  0  2  0  0  0  0  0  0  0  0  0
  -15.1456  -15.4827  -26.5202 C   0  0  0  0  0  0  0  0  0  0  0  0
  -15.8455  -14.9966  -25.4093 C   0  0  0  0  0  0  0  0  0  0  0  0
  -15.9542  -13.6273  -25.1816 C   0  0  0  0  0  0  0  0  0  0  0  0
  -15.3606  -12.7388  -26.0820 C   0  0  0  0  0  0  0  0  0  0  0  0
  -14.6927  -13.2152  -27.2127 C   0  0  0  0  0  0  0  0  0  0  0  0
  -14.5967  -14.5899  -27.4412 C   0  0  0  0  0  0  0  0  0  0  0  0
  -13.2913  -23.7296  -27.2162 C   0  0  2  0  0  0  0  0  0  0  0  0
  -15.5256  -24.3046  -26.0646 C   0  0  2  0  0  0  0  0  0  0  0  0
  -13.5588  -23.7104  -24.7435 C   0  0  2  0  0  0  0  0  0  0  0  0
  -16.5970  -17.9575  -24.2078 H   0  0  0  0  0  0  0  0  0  0  0  0
  -16.2615  -19.7106  -24.1588 H   0  0  0  0  0  0  0  0  0  0  0  0
  -15.8335  -22.0562  -24.3197 H   0  0  0  0  0  0  0  0  0  0  0  0
  -13.7540  -21.4453  -28.0411 H   0  0  0  0  0  0  0  0  0  0  0  0
  -14.2154  -19.0765  -27.9102 H   0  0  0  0  0  0  0  0  0  0  0  0
  -16.4797  -13.2560  -24.3134 H   0  0  0  0  0  0  0  0  0  0  0  0
  -15.4192  -11.6739  -25.9082 H   0  0  0  0  0  0  0  0  0  0  0  0
  -14.2451  -12.5162  -27.9061 H   0  0  0  0  0  0  0  0  0  0  0  0
  -14.0657  -14.9607  -28.3059 H   0  0  0  0  0  0  0  0  0  0  0  0
  -12.5990  -22.9075  -27.4045 H   0  0  0  0  0  0  0  0  0  0  0  0
  -13.8252  -23.9388  -28.1409 H   0  0  0  0  0  0  0  0  0  0  0  0
  -12.6728  -24.6017  -27.0080 H   0  0  0  0  0  0  0  0  0  0  0  0
  -16.3235  -23.8683  -25.4638 H   0  0  0  0  0  0  0  0  0  0  0  0
  -15.3738  -25.3004  -25.6589 H   0  0  0  0  0  0  0  0  0  0  0  0
  -15.9078  -24.4258  -27.0691 H   0  0  0  0  0  0  0  0  0  0  0  0
  -14.1651  -23.3809  -23.9042 H   0  0  0  0  0  0  0  0  0  0  0  0
  -12.5772  -23.2416  -24.6793 H   0  0  0  0  0  0  0  0  0  0  0  0
  -13.4211  -24.7873  -24.6563 H   0  0  0  0  0  0  0  0  0  0  0  0
  1  2  2  0
  1 13  1  0
  2  3  1  0
  2  6  1  0
  3  4  1  0
  3 22  1  0
  4  5  2  0
  4 14  1  0
  6  7  2  0
  6 11  1  0
  7  8  1  0
  7 23  1  0
  8  9  2  0
  8 24  1  0
  9 10  1  0
 12  9  1  1
 10 11  2  0
 10 25  1  0
 11 26  1  0
 12 19  1  0
 12 20  1  0
 12 21  1  0
 13 14  2  0
 13 18  1  0
 14 15  1  0
 15 16  2  0
 15 27  1  0
 16 17  1  0
 16 28  1  0
 17 18  2  0
 17 29  1  0
 18 30  1  0
 19 31  1  6
 19 32  1  0
 19 33  1  0
 20 34  1  1
 20 35  1  0
 20 36  1  0
 21 37  1  1
 21 38  1  0
 21 39  1  0
M  END
