5k
     RDKit          3D

 37 39  0  0  1  0  0  0  0  0999 V2000
  -14.4494  -14.6878  -27.3756 C   0  0  0  0  0  0  0  0  0  0  0  0
  -15.0733  -15.5254  -26.4438 C   0  0  0  0  0  0  0  0  0  0  0  0
  -14.6147  -13.3124  -27.2602 C   0  0  0  0  0  0  0  0  0  0  0  0
  -15.8783  -14.9936  -25.4269 C   0  0  0  0  0  0  0  0  0  0  0  0
  -14.8763  -16.9014  -26.5389 N   0  0  0  0  0  0  0  0  0  0  0  0
  -15.4003  -12.7951  -26.2337 C   0  0  0  0  0  0  0  0  0  0  0  0
  -16.0436  -13.6179  -25.3152 C   0  0  0  0  0  0  0  0  0  0  0  0
  -16.5669  -15.9459  -24.4724 C   0  0  0  0  0  0  0  0  0  0  0  0
  -16.2420  -17.2406  -24.7325 N   0  0  0  0  0  0  0  0  0  0  0  0
  -17.3556  -15.6336  -23.5790 O   0  0  0  0  0  0  0  0  0  0  0  0
  -15.4275  -17.7404  -25.7323 C   0  0  0  0  0  0  0  0  0  0  0  0
  -15.2306  -19.1871  -25.8893 C   0  0  0  0  0  0  0  0  0  0  0  0
  -15.5301  -20.0922  -24.8647 C   0  0  0  0  0  0  0  0  0  0  0  0
  -15.2684  -21.4440  -25.0421 C   0  0  0  0  0  0  0  0  0  0  0  0
  -14.7265  -21.9068  -26.2473 C   0  0  0  0  0  0  0  0  0  0  0  0
  -14.4636  -21.0105  -27.2766 C   0  0  0  0  0  0  0  0  0  0  0  0
  -14.7135  -19.6654  -27.1012 C   0  0  0  0  0  0  0  0  0  0  0  0
  -14.3298  -23.3697  -26.3946 C   0  0  2  0  0  0  0  0  0  0  0  0
  -14.0381  -23.7767  -27.7059 O   0  0  0  0  0  0  0  0  0  0  0  0
  -13.6772  -15.1867  -28.3706 F   0  0  0  0  0  0  0  0  0  0  0  0
  -15.5528  -11.4762  -26.1382 F   0  0  0  0  0  0  0  0  0  0  0  0
  -15.4771  -24.2994  -26.0294 C   0  0  2  0  0  0  0  0  0  0  0  0
  -13.0430  -23.5787  -25.6031 C   0  0  2  0  0  0  0  0  0  0  0  0
  -14.1330  -12.6425  -27.9587 H   0  0  0  0  0  0  0  0  0  0  0  0
  -16.6549  -13.1822  -24.5359 H   0  0  0  0  0  0  0  0  0  0  0  0
  -16.7513  -17.9044  -24.1644 H   0  0  0  0  0  0  0  0  0  0  0  0
  -15.9377  -19.7685  -23.9179 H   0  0  0  0  0  0  0  0  0  0  0  0
  -15.4552  -22.1230  -24.2232 H   0  0  0  0  0  0  0  0  0  0  0  0
  -14.0290  -21.3427  -28.2077 H   0  0  0  0  0  0  0  0  0  0  0  0
  -14.4800  -19.0009  -27.9220 H   0  0  0  0  0  0  0  0  0  0  0  0
  -13.7948  -24.7096  -27.6881 H   0  0  0  0  0  0  0  0  0  0  0  0
  -16.4090  -23.9635  -26.4827 H   0  0  0  0  0  0  0  0  0  0  0  0
  -15.6163  -24.3371  -24.9505 H   0  0  0  0  0  0  0  0  0  0  0  0
  -15.3142  -25.3334  -26.3406 H   0  0  0  0  0  0  0  0  0  0  0  0
  -12.2710  -22.8791  -25.9197 H   0  0  0  0  0  0  0  0  0  0  0  0
  -12.6571  -24.5835  -25.7507 H   0  0  0  0  0  0  0  0  0  0  0  0
  -13.1952  -23.4387  -24.5324 H   0  0  0  0  0  0  0  0  0  0  0  0
  1  2  2  0
  1  3  1  0
  1 20  1  0
  2  4  1  0
  2  5  1  0
  3  6  2  0
  3 24  1  0
  4  7  2  0
  4  8  1  0
  5 11  2  0
  6  7  1  0
  6 21  1  0
  7 25  1  0
  8  9  1  0
  8 10  2  0
  9 11  1  0
  9 26  1  0
 11 12  1  0
 12 13  2  0
 12 17  1  0
 13 14  1  0
 13 27  1  0
 14 15  2  0
 14 28  1  0
 15 16  1  0
 15 18  1  0
 16 17  2  0
 16 29  1  0
 17 30  1  0
 18 19  1  6
 18 22  1  0
 18 23  1  0
 19 31  1  0
 22 32  1  6
 22 33  1  0
 22 34  1  0
 23 35  1  6
 23 36  1  0
 23 37  1  0
M  END
