5f
     RDKit          3D

 37 39  0  0  1  0  0  0  0  0999 V2000
  -14.5939  -14.6159  -27.4542 C   0  0  0  0  0  0  0  0  0  0  0  0
  -15.1393  -15.4968  -26.5127 C   0  0  0  0  0  0  0  0  0  0  0  0
  -14.7099  -13.2383  -27.2560 C   0  0  0  0  0  0  0  0  0  0  0  0
  -15.8645  -14.9907  -25.4269 C   0  0  0  0  0  0  0  0  0  0  0  0
  -14.9222  -16.8798  -26.6417 N   0  0  0  0  0  0  0  0  0  0  0  0
  -15.3904  -12.7429  -26.1443 C   0  0  0  0  0  0  0  0  0  0  0  0
  -15.9879  -13.6174  -25.2331 C   0  0  0  0  0  0  0  0  0  0  0  0
  -16.4962  -15.9711  -24.4698 C   0  0  0  0  0  0  0  0  0  0  0  0
  -16.1133  -17.2473  -24.7233 N   0  0  0  0  0  0  0  0  0  0  0  0
  -17.2941  -15.6967  -23.5796 O   0  0  0  0  0  0  0  0  0  0  0  0
  -15.3789  -17.7336  -25.7824 C   0  0  0  0  0  0  0  0  0  0  0  0
  -15.1931  -19.1904  -25.9176 C   0  0  0  0  0  0  0  0  0  0  0  0
  -15.6813  -20.0924  -24.9600 C   0  0  0  0  0  0  0  0  0  0  0  0
  -15.4707  -21.4580  -25.1103 C   0  0  0  0  0  0  0  0  0  0  0  0
  -14.7653  -21.9426  -26.2147 C   0  0  0  0  0  0  0  0  0  0  0  0
  -14.2983  -21.0474  -27.1782 C   0  0  0  0  0  0  0  0  0  0  0  0
  -14.5118  -19.6882  -27.0333 C   0  0  0  0  0  0  0  0  0  0  0  0
  -14.3792  -23.4206  -26.2882 C   0  0  2  0  0  0  0  0  0  0  0  0
  -14.0562  -23.8575  -27.5815 O   0  0  0  0  0  0  0  0  0  0  0  0
  -15.5115  -24.3827  -25.9109 C   0  0  2  0  0  0  0  0  0  0  0  0
  -13.1126  -23.5929  -25.4489 C   0  0  2  0  0  0  0  0  0  0  0  0
  -13.9031  -15.0774  -28.5240 F   0  0  0  0  0  0  0  0  0  0  0  0
  -14.2577  -12.5505  -27.9586 H   0  0  0  0  0  0  0  0  0  0  0  0
  -15.4500  -11.6748  -25.9936 H   0  0  0  0  0  0  0  0  0  0  0  0
  -16.5283  -13.2304  -24.3805 H   0  0  0  0  0  0  0  0  0  0  0  0
  -16.5685  -17.9226  -24.1245 H   0  0  0  0  0  0  0  0  0  0  0  0
  -16.2017  -19.7554  -24.0761 H   0  0  0  0  0  0  0  0  0  0  0  0
  -15.8159  -22.1316  -24.3398 H   0  0  0  0  0  0  0  0  0  0  0  0
  -13.7280  -21.3922  -28.0268 H   0  0  0  0  0  0  0  0  0  0  0  0
  -14.1265  -19.0269  -27.7965 H   0  0  0  0  0  0  0  0  0  0  0  0
  -13.8104  -24.7865  -27.5315 H   0  0  0  0  0  0  0  0  0  0  0  0
  -16.4597  -24.0727  -26.3431 H   0  0  0  0  0  0  0  0  0  0  0  0
  -15.6264  -24.4295  -24.8300 H   0  0  0  0  0  0  0  0  0  0  0  0
  -15.3294  -25.4134  -26.2246 H   0  0  0  0  0  0  0  0  0  0  0  0
  -12.3412  -22.8798  -25.7384 H   0  0  0  0  0  0  0  0  0  0  0  0
  -12.6991  -24.5897  -25.5902 H   0  0  0  0  0  0  0  0  0  0  0  0
  -13.3049  -23.4557  -24.3827 H   0  0  0  0  0  0  0  0  0  0  0  0
  1  2  2  0
  1  3  1  0
  1 22  1  0
  2  4  1  0
  2  5  1  0
  3  6  2  0
  3 23  1  0
  4  7  2  0
  4  8  1  0
  5 11  2  0
  6  7  1  0
  6 24  1  0
  7 25  1  0
  8  9  1  0
  8 10  2  0
  9 11  1  0
  9 26  1  0
 11 12  1  0
 12 13  2  0
 12 17  1  0
 13 14  1  0
 13 27  1  0
 14 15  2  0
 14 28  1  0
 15 16  1  0
 15 18  1  0
 16 17  2  0
 16 29  1  0
 17 30  1  0
 18 19  1  6
 18 20  1  0
 18 21  1  0
 19 31  1  0
 20 32  1  6
 20 33  1  0
 20 34  1  0
 21 35  1  6
 21 36  1  0
 21 37  1  0
M  END
