3b
     RDKit          3D

 39 41  0  0  1  0  0  0  0  0999 V2000
  -14.5464  -14.7232  -27.4356 C   0  0  0  0  0  0  0  0  0  0  0  0
  -15.1360  -15.5339  -26.4695 C   0  0  0  0  0  0  0  0  0  0  0  0
  -14.6533  -13.3432  -27.3133 C   0  0  0  0  0  0  0  0  0  0  0  0
  -15.8741  -14.9876  -25.4152 C   0  0  0  0  0  0  0  0  0  0  0  0
  -14.9576  -16.9049  -26.5789 N   0  0  0  0  0  0  0  0  0  0  0  0
  -15.3721  -12.8002  -26.2499 C   0  0  0  0  0  0  0  0  0  0  0  0
  -16.0007  -13.6073  -25.2994 C   0  0  0  0  0  0  0  0  0  0  0  0
  -16.5164  -15.9402  -24.4277 C   0  0  0  0  0  0  0  0  0  0  0  0
  -16.1414  -17.2287  -24.6503 N   0  0  0  0  0  0  0  0  0  0  0  0
  -17.3159  -15.6410  -23.5417 O   0  0  0  0  0  0  0  0  0  0  0  0
  -15.4249  -17.7359  -25.7139 C   0  0  0  0  0  0  0  0  0  0  0  0
  -15.2359  -19.1804  -25.8758 C   0  0  0  0  0  0  0  0  0  0  0  0
  -14.5374  -19.6209  -27.0043 C   0  0  0  0  0  0  0  0  0  0  0  0
  -14.2725  -20.9563  -27.1864 C   0  0  0  0  0  0  0  0  0  0  0  0
  -14.7104  -21.8989  -26.2532 C   0  0  0  0  0  0  0  0  0  0  0  0
  -15.4403  -21.4699  -25.1391 C   0  0  0  0  0  0  0  0  0  0  0  0
  -15.7065  -20.1174  -24.9495 C   0  0  0  0  0  0  0  0  0  0  0  0
  -15.4673  -11.4740  -26.1606 F   0  0  0  0  0  0  0  0  0  0  0  0
  -14.3486  -23.3798  -26.4226 C   0  0  2  0  0  0  0  0  0  0  0  0
  -15.5459  -24.2214  -25.9758 C   0  0  2  0  0  0  0  0  0  0  0  0
  -13.1394  -23.7771  -25.5730 C   0  0  2  0  0  0  0  0  0  0  0  0
  -13.9381  -23.6999  -27.8602 C   0  0  2  0  0  0  0  0  0  0  0  0
  -13.9900  -15.1603  -28.2528 H   0  0  0  0  0  0  0  0  0  0  0  0
  -14.1865  -12.6888  -28.0372 H   0  0  0  0  0  0  0  0  0  0  0  0
  -16.5616  -13.1686  -24.4872 H   0  0  0  0  0  0  0  0  0  0  0  0
  -16.6125  -17.8944  -24.0525 H   0  0  0  0  0  0  0  0  0  0  0  0
  -14.1680  -18.9332  -27.7533 H   0  0  0  0  0  0  0  0  0  0  0  0
  -13.7011  -21.2180  -28.0613 H   0  0  0  0  0  0  0  0  0  0  0  0
  -15.7829  -22.1808  -24.4039 H   0  0  0  0  0  0  0  0  0  0  0  0
  -16.2550  -19.8174  -24.0677 H   0  0  0  0  0  0  0  0  0  0  0  0
  -16.3918  -24.1457  -26.6608 H   0  0  0  0  0  0  0  0  0  0  0  0
  -15.8898  -23.9146  -24.9903 H   0  0  0  0  0  0  0  0  0  0  0  0
  -15.2369  -25.2568  -25.9104 H   0  0  0  0  0  0  0  0  0  0  0  0
  -12.2959  -23.1263  -25.7740 H   0  0  0  0  0  0  0  0  0  0  0  0
  -12.7615  -24.7694  -25.7690 H   0  0  0  0  0  0  0  0  0  0  0  0
  -13.3794  -23.7228  -24.5186 H   0  0  0  0  0  0  0  0  0  0  0  0
  -13.2180  -22.9588  -28.1763 H   0  0  0  0  0  0  0  0  0  0  0  0
  -14.7917  -23.6980  -28.5344 H   0  0  0  0  0  0  0  0  0  0  0  0
  -13.4289  -24.6626  -27.9418 H   0  0  0  0  0  0  0  0  0  0  0  0
  1  2  2  0
  1  3  1  0
  1 23  1  0
  2  4  1  0
  2  5  1  0
  3  6  2  0
  3 24  1  0
  4  7  2  0
  4  8  1  0
  5 11  2  0
  6  7  1  0
  6 18  1  0
  7 25  1  0
  8  9  1  0
  8 10  2  0
  9 11  1  0
  9 26  1  0
 11 12  1  0
 12 13  2  0
 12 17  1  0
 13 14  1  0
 13 27  1  0
 14 15  2  0
 14 28  1  0
 15 16  1  0
 19 15  1  6
 16 17  2  0
 16 29  1  0
 17 30  1  0
 19 20  1  0
 19 21  1  0
 19 22  1  0
 20 31  1  6
 20 32  1  0
 20 33  1  0
 21 34  1  1
 21 35  1  0
 21 36  1  0
 22 37  1  6
 22 38  1  0
 22 39  1  0
M  END
