7
     RDKit          3D

 36 38  0  0  1  0  0  0  0  0999 V2000
  -15.2679  -19.2305  -25.8929 C   0  0  0  0  0  0  0  0  0  0  0  0
  -15.6591  -20.0891  -24.8587 N   0  0  0  0  0  0  0  0  0  0  0  0
  -14.6531  -19.7810  -27.0295 C   0  0  0  0  0  0  0  0  0  0  0  0
  -15.4779  -17.7686  -25.7864 C   0  0  0  0  0  0  0  0  0  0  0  0
  -15.4420  -21.4558  -24.9618 C   0  0  0  0  0  0  0  0  0  0  0  0
  -14.4656  -21.1553  -27.1433 C   0  0  0  0  0  0  0  0  0  0  0  0
  -14.8628  -22.0135  -26.1129 C   0  0  0  0  0  0  0  0  0  0  0  0
  -16.2713  -17.2602  -24.7692 N   0  0  0  0  0  0  0  0  0  0  0  0
  -16.5565  -15.9646  -24.4696 C   0  0  0  0  0  0  0  0  0  0  0  0
  -14.9499  -16.9269  -26.6132 N   0  0  0  0  0  0  0  0  0  0  0  0
  -15.1161  -15.5424  -26.4704 C   0  0  0  0  0  0  0  0  0  0  0  0
  -15.8814  -15.0035  -25.4269 C   0  0  0  0  0  0  0  0  0  0  0  0
  -16.0039  -13.6169  -25.2857 C   0  0  0  0  0  0  0  0  0  0  0  0
  -15.3576  -12.7799  -26.2011 C   0  0  0  0  0  0  0  0  0  0  0  0
  -14.6076  -13.3201  -27.2472 C   0  0  0  0  0  0  0  0  0  0  0  0
  -14.4878  -14.7022  -27.3872 C   0  0  0  0  0  0  0  0  0  0  0  0
  -17.2975  -15.6652  -23.5311 O   0  0  0  0  0  0  0  0  0  0  0  0
  -14.6166  -23.5393  -26.2074 C   0  0  2  0  0  0  0  0  0  0  0  0
  -14.3384  -23.8930  -27.5787 O   0  0  0  0  0  0  0  0  0  0  0  0
  -15.4526  -11.4369  -26.0886 F   0  0  0  0  0  0  0  0  0  0  0  0
  -15.8456  -24.2795  -25.6347 C   0  0  2  0  0  0  0  0  0  0  0  0
  -13.3302  -23.8413  -25.4306 C   0  0  2  0  0  0  0  0  0  0  0  0
  -14.3315  -19.1501  -27.8464 H   0  0  0  0  0  0  0  0  0  0  0  0
  -15.7297  -22.0671  -24.1205 H   0  0  0  0  0  0  0  0  0  0  0  0
  -13.9921  -21.5411  -28.0338 H   0  0  0  0  0  0  0  0  0  0  0  0
  -16.7718  -17.9196  -24.1895 H   0  0  0  0  0  0  0  0  0  0  0  0
  -16.5823  -13.1971  -24.4757 H   0  0  0  0  0  0  0  0  0  0  0  0
  -14.1125  -12.6628  -27.9466 H   0  0  0  0  0  0  0  0  0  0  0  0
  -13.9018  -15.1197  -28.1930 H   0  0  0  0  0  0  0  0  0  0  0  0
  -15.9284  -24.1188  -24.5609 H   0  0  0  0  0  0  0  0  0  0  0  0
  -15.9002  -25.3526  -25.7655 H   0  0  0  0  0  0  0  0  0  0  0  0
  -16.7155  -23.8779  -26.1271 H   0  0  0  0  0  0  0  0  0  0  0  0
  -13.4715  -23.7769  -24.3507 H   0  0  0  0  0  0  0  0  0  0  0  0
  -12.6044  -23.0827  -25.7010 H   0  0  0  0  0  0  0  0  0  0  0  0
  -12.8880  -24.8069  -25.6726 H   0  0  0  0  0  0  0  0  0  0  0  0
  -14.1852  -24.8386  -27.6410 H   0  0  0  0  0  0  0  0  0  0  0  0
  1  2  1  0
  1  3  2  0
  1  4  1  0
  2  5  2  0
  3  6  1  0
  3 23  1  0
  4  8  1  0
  4 10  2  0
  5  7  1  0
  5 24  1  0
  6  7  2  0
  6 25  1  0
  7 18  1  0
  8  9  1  0
  8 26  1  0
  9 12  1  0
  9 17  2  0
 10 11  1  0
 11 12  2  0
 11 16  1  0
 12 13  1  0
 13 14  2  0
 13 27  1  0
 14 15  1  0
 14 20  1  0
 15 16  2  0
 15 28  1  0
 16 29  1  0
 18 19  1  6
 18 21  1  0
 18 22  1  0
 19 36  1  0
 21 30  1  1
 21 31  1  0
 21 32  1  0
 22 33  1  1
 22 34  1  0
 22 35  1  0
M  END
