5a
     RDKit          3D

 37 39  0  0  1  0  0  0  0  0999 V2000
  -14.5878  -14.6282  -27.4453 C   0  0  0  0  0  0  0  0  0  0  0  0
  -15.1390  -15.4969  -26.5036 C   0  0  0  0  0  0  0  0  0  0  0  0
  -14.7037  -13.2486  -27.2617 C   0  0  0  0  0  0  0  0  0  0  0  0
  -15.8634  -14.9888  -25.4218 C   0  0  0  0  0  0  0  0  0  0  0  0
  -14.9283  -16.8764  -26.6435 N   0  0  0  0  0  0  0  0  0  0  0  0
  -15.3927  -12.7461  -26.1562 C   0  0  0  0  0  0  0  0  0  0  0  0
  -15.9901  -13.6140  -25.2377 C   0  0  0  0  0  0  0  0  0  0  0  0
  -16.4939  -15.9696  -24.4639 C   0  0  0  0  0  0  0  0  0  0  0  0
  -16.1267  -17.2483  -24.7279 N   0  0  0  0  0  0  0  0  0  0  0  0
  -17.2799  -15.6970  -23.5622 O   0  0  0  0  0  0  0  0  0  0  0  0
  -15.3880  -17.7318  -25.7874 C   0  0  0  0  0  0  0  0  0  0  0  0
  -15.2003  -19.1886  -25.9216 C   0  0  0  0  0  0  0  0  0  0  0  0
  -15.6914  -20.0920  -24.9676 C   0  0  0  0  0  0  0  0  0  0  0  0
  -15.4749  -21.4571  -25.1159 C   0  0  0  0  0  0  0  0  0  0  0  0
  -14.7596  -21.9407  -26.2152 C   0  0  0  0  0  0  0  0  0  0  0  0
  -14.2918  -21.0436  -27.1762 C   0  0  0  0  0  0  0  0  0  0  0  0
  -14.5119  -19.6850  -27.0336 C   0  0  0  0  0  0  0  0  0  0  0  0
  -14.3672  -23.4172  -26.2847 C   0  0  2  0  0  0  0  0  0  0  0  0
  -14.0118  -23.8505  -27.5720 O   0  0  0  0  0  0  0  0  0  0  0  0
  -15.5094  -24.3828  -25.9363 C   0  0  2  0  0  0  0  0  0  0  0  0
  -13.1163  -23.5884  -25.4200 C   0  0  2  0  0  0  0  0  0  0  0  0
  -14.0385  -15.0196  -28.2892 H   0  0  0  0  0  0  0  0  0  0  0  0
  -14.2528  -12.5655  -27.9690 H   0  0  0  0  0  0  0  0  0  0  0  0
  -15.4588  -11.6762  -26.0192 H   0  0  0  0  0  0  0  0  0  0  0  0
  -16.5316  -13.2208  -24.3886 H   0  0  0  0  0  0  0  0  0  0  0  0
  -16.5692  -17.9247  -24.1205 H   0  0  0  0  0  0  0  0  0  0  0  0
  -16.2181  -19.7561  -24.0869 H   0  0  0  0  0  0  0  0  0  0  0  0
  -15.8221  -22.1315  -24.3463 H   0  0  0  0  0  0  0  0  0  0  0  0
  -13.7167  -21.3867  -28.0236 H   0  0  0  0  0  0  0  0  0  0  0  0
  -14.1254  -19.0224  -27.7959 H   0  0  0  0  0  0  0  0  0  0  0  0
  -13.7629  -24.7781  -27.5192 H   0  0  0  0  0  0  0  0  0  0  0  0
  -16.4355  -24.0818  -26.4250 H   0  0  0  0  0  0  0  0  0  0  0  0
  -15.6772  -24.4271  -24.8616 H   0  0  0  0  0  0  0  0  0  0  0  0
  -15.3038  -25.4132  -26.2347 H   0  0  0  0  0  0  0  0  0  0  0  0
  -12.3430  -22.8639  -25.6819 H   0  0  0  0  0  0  0  0  0  0  0  0
  -12.6877  -24.5781  -25.5664 H   0  0  0  0  0  0  0  0  0  0  0  0
  -13.3342  -23.4702  -24.3571 H   0  0  0  0  0  0  0  0  0  0  0  0
  1  2  2  0
  1  3  1  0
  1 22  1  0
  2  4  1  0
  2  5  1  0
  3  6  2  0
  3 23  1  0
  4  7  2  0
  4  8  1  0
  5 11  2  0
  6  7  1  0
  6 24  1  0
  7 25  1  0
  8  9  1  0
  8 10  2  0
  9 11  1  0
  9 26  1  0
 11 12  1  0
 12 13  2  0
 12 17  1  0
 13 14  1  0
 13 27  1  0
 14 15  2  0
 14 28  1  0
 15 16  1  0
 15 18  1  0
 16 17  2  0
 16 29  1  0
 17 30  1  0
 18 19  1  6
 18 20  1  0
 18 21  1  0
 19 31  1  0
 20 32  1  6
 20 33  1  0
 20 34  1  0
 21 35  1  6
 21 36  1  0
 21 37  1  0
M  END
