ligand_15
     RDKit          3D

 48 52  0  0  1  0  0  0  0  0999 V2000
   19.6450   10.2650   20.2790 N   0  0  0  0  0  0  0  0  0  0  0  0
   19.8840   10.5660   18.9760 C   0  0  0  0  0  0  0  0  0  0  0  0
   20.8580    9.6960   18.4540 C   0  0  0  0  0  0  0  0  0  0  0  0
   21.1970    8.8180   19.5580 C   0  0  0  0  0  0  0  0  0  0  0  0
   20.4420    9.2150   20.6240 N   0  0  0  0  0  0  0  0  0  0  0  0
   22.0450    7.7820   19.7090 N   0  0  0  0  0  0  0  0  0  0  0  0
   22.1080    7.1970   20.9070 C   0  0  0  0  0  0  0  0  0  0  0  0
   21.3790    7.5860   21.9510 N   0  0  0  0  0  0  0  0  0  0  0  0
   20.5420    8.6060   21.7870 C   0  0  0  0  0  0  0  0  0  0  0  0
   19.7670    9.0420   22.8080 N   0  0  0  0  0  0  0  0  0  0  0  0
   19.8180    8.3410   24.0910 C   0  0  1  0  0  0  0  0  0  0  0  0
   20.8360    9.0200   25.0120 C   0  0  1  0  0  0  0  0  0  0  0  0
   19.3330    9.2550   25.2200 C   0  0  1  0  0  0  0  0  0  0  0  0
   22.9280    6.1400   21.1660 N   0  0  0  0  0  0  0  0  0  0  0  0
   23.7270    5.4270   20.3230 C   0  0  0  0  0  0  0  0  0  0  0  0
   23.8830    5.7100   18.9650 C   0  0  0  0  0  0  0  0  0  0  0  0
   24.7050    4.9530   18.1300 C   0  0  0  0  0  0  0  0  0  0  0  0
   25.3860    3.8760   18.6920 C   0  0  0  0  0  0  0  0  0  0  0  0
   25.2550    3.5650   20.0460 C   0  0  0  0  0  0  0  0  0  0  0  0
   24.4260    4.3440   20.8520 C   0  0  0  0  0  0  0  0  0  0  0  0
   24.8830    5.1810   16.8000 N   0  0  0  0  0  0  0  0  0  0  0  0
   24.8430    6.3120   16.0590 C   0  0  0  0  0  0  0  0  0  0  0  0
   24.9410    6.2940   14.8370 O   0  0  0  0  0  0  0  0  0  0  0  0
   24.6790    7.6730   16.7210 C   0  0  1  0  0  0  0  0  0  0  0  0
   23.1940    8.0460   16.7030 C   0  0  1  0  0  0  0  0  0  0  0  0
   22.9050    9.5110   17.0290 C   0  0  1  0  0  0  0  0  0  0  0  0
   21.3980    9.7730   17.0450 C   0  0  1  0  0  0  0  0  0  0  0  0
   19.3497   11.3762   18.5021 H   0  0  0  0  0  0  0  0  0  0  0  0
   19.1638    9.8416   22.6783 H   0  0  0  0  0  0  0  0  0  0  0  0
   19.8108    7.4432   24.6565 H   0  0  0  0  0  0  0  0  0  0  0  0
   21.4283    8.2605   25.5223 H   0  0  0  0  0  0  0  0  0  0  0  0
   21.4941    9.6564   24.4204 H   0  0  0  0  0  0  0  0  0  0  0  0
   18.7637   10.0834   24.7983 H   0  0  0  0  0  0  0  0  0  0  0  0
   18.6980    8.6874   25.9002 H   0  0  0  0  0  0  0  0  0  0  0  0
   23.0034    5.7778   22.1058 H   0  0  0  0  0  0  0  0  0  0  0  0
   23.3562    6.5427   18.5229 H   0  0  0  0  0  0  0  0  0  0  0  0
   26.0297    3.2641   18.0775 H   0  0  0  0  0  0  0  0  0  0  0  0
   25.7936    2.7264   20.4620 H   0  0  0  0  0  0  0  0  0  0  0  0
   24.3295    4.0985   21.8993 H   0  0  0  0  0  0  0  0  0  0  0  0
   25.0876    4.4115   16.1787 H   0  0  0  0  0  0  0  0  0  0  0  0
   25.0374    7.6230   17.7492 H   0  0  0  0  0  0  0  0  0  0  0  0
   25.2559    8.4168   16.1714 H   0  0  0  0  0  0  0  0  0  0  0  0
   22.7829    7.8550   15.7118 H   0  0  0  0  0  0  0  0  0  0  0  0
   22.6592    7.4461   17.4394 H   0  0  0  0  0  0  0  0  0  0  0  0
   23.3153    9.7534   18.0093 H   0  0  0  0  0  0  0  0  0  0  0  0
   23.3657   10.1493   16.2750 H   0  0  0  0  0  0  0  0  0  0  0  0
   20.9040    9.0252   16.4246 H   0  0  0  0  0  0  0  0  0  0  0  0
   21.2088   10.7657   16.6366 H   0  0  0  0  0  0  0  0  0  0  0  0
  1  2  2  0
  1  5  1  0
  2  3  1  0
  2 28  1  0
  3  4  2  0
  3 27  1  0
  4  5  1  0
  4  6  1  0
  5  9  1  0
  6  7  2  0
  7  8  1  0
  7 14  1  0
  8  9  2  0
  9 10  1  0
 10 11  1  0
 10 29  1  0
 11 12  1  0
 11 13  1  0
 11 30  1  6
 12 13  1  0
 12 31  1  1
 12 32  1  0
 13 33  1  6
 13 34  1  0
 14 15  1  0
 14 35  1  0
 15 16  1  0
 15 20  2  0
 16 17  2  0
 16 36  1  0
 17 18  1  0
 17 21  1  0
 18 19  2  0
 18 37  1  0
 19 20  1  0
 19 38  1  0
 20 39  1  0
 21 22  1  0
 21 40  1  0
 22 23  2  0
 22 24  1  0
 24 25  1  0
 24 41  1  1
 24 42  1  0
 25 26  1  0
 25 43  1  6
 25 44  1  0
 26 27  1  0
 26 45  1  1
 26 46  1  0
 27 47  1  6
 27 48  1  0
M  END
