48
     RDKit          3D

 42 45  0  0  1  0  0  0  0  0999 V2000
    3.3463  -48.4013    6.5719 O   0  0  0  0  0  0  0  0  0  0  0  0
    2.8403  -49.5432    6.5846 C   0  0  0  0  0  0  0  0  0  0  0  0
    3.4615  -50.6099    6.8278 O   0  0  0  0  0  0  0  0  0  0  0  0
    1.3715  -49.6640    6.3485 C   0  0  0  0  0  0  0  0  0  0  0  0
   -0.5494  -50.8797    6.4108 C   0  0  0  0  0  0  0  0  0  0  0  0
   -1.5187  -51.8785    6.5696 C   0  0  0  0  0  0  0  0  0  0  0  0
   -2.8358  -51.5416    6.2455 C   0  0  0  0  0  0  0  0  0  0  0  0
   -3.1710  -50.2698    5.7877 C   0  0  0  0  0  0  0  0  0  0  0  0
   -2.2045  -49.2760    5.6259 C   0  0  0  0  0  0  0  0  0  0  0  0
   -0.8626  -49.5709    5.9317 C   0  0  0  0  0  0  0  0  0  0  0  0
    0.3613  -48.8136    5.8678 C   0  0  0  0  0  0  0  0  0  0  0  0
    0.4873  -47.3818    5.3798 C   0  0  2  0  0  0  0  0  0  0  0  0
    0.4699  -46.3747    6.5454 C   0  0  2  0  0  0  0  0  0  0  0  0
   -0.8925  -46.2716    7.2532 C   0  0  2  0  0  0  0  0  0  0  0  0
   -1.8525  -45.6924    6.3733 O   0  0  0  0  0  0  0  0  0  0  0  0
   -3.1547  -45.4791    6.7919 C   0  0  0  0  0  0  0  0  0  0  0  0
   -5.7760  -45.1935    7.8945 C   0  0  0  0  0  0  0  0  0  0  0  0
   -4.7621  -45.8576    8.5812 C   0  0  0  0  0  0  0  0  0  0  0  0
   -3.4859  -45.9889    8.0453 C   0  0  0  0  0  0  0  0  0  0  0  0
   -1.2700  -52.8651    6.9285 H   0  0  0  0  0  0  0  0  0  0  0  0
   -3.6193  -52.2830    6.3494 H   0  0  0  0  0  0  0  0  0  0  0  0
   -4.2037  -50.0448    5.5545 H   0  0  0  0  0  0  0  0  0  0  0  0
   -2.4810  -48.2904    5.2830 H   0  0  0  0  0  0  0  0  0  0  0  0
   -0.3046  -47.1295    4.6721 H   0  0  0  0  0  0  0  0  0  0  0  0
    1.4184  -47.2614    4.8200 H   0  0  0  0  0  0  0  0  0  0  0  0
    0.7562  -45.3854    6.1826 H   0  0  0  0  0  0  0  0  0  0  0  0
    1.2359  -46.6699    7.2644 H   0  0  0  0  0  0  0  0  0  0  0  0
   -0.8002  -45.6583    8.1526 H   0  0  0  0  0  0  0  0  0  0  0  0
   -1.2045  -47.2743    7.5460 H   0  0  0  0  0  0  0  0  0  0  0  0
   -2.7159  -46.5049    8.6024 H   0  0  0  0  0  0  0  0  0  0  0  0
   -4.9645  -46.2800    9.5528 H   0  0  0  0  0  0  0  0  0  0  0  0
   -6.7646  -45.0917    8.3150 H   0  0  0  0  0  0  0  0  0  0  0  0
    0.8137  -50.8947    6.6419 N   0  0  0  0  0  0  0  0  0  0  0  0
    1.4374  -51.6278    6.9676 H   0  0  0  0  0  0  0  0  0  0  0  0
   -5.5297  -43.5973    4.6524 C   0  0  0  0  0  0  0  0  0  0  0  0
   -6.2449  -43.9395    5.7706 N   0  0  0  0  0  0  0  0  0  0  0  0
   -5.4559  -44.6554    6.6459 C   0  0  0  0  0  0  0  0  0  0  0  0
   -4.1558  -44.7793    6.0559 C   0  0  0  0  0  0  0  0  0  0  0  0
   -4.2535  -44.0980    4.7809 C   0  0  0  0  0  0  0  0  0  0  0  0
   -7.2103  -43.6791    5.9101 H   0  0  0  0  0  0  0  0  0  0  0  0
   -3.4761  -43.9661    4.0426 H   0  0  0  0  0  0  0  0  0  0  0  0
   -5.9887  -43.0178    3.8584 H   0  0  0  0  0  0  0  0  0  0  0  0
  1  2  2  0
  2  3  1  0
  2  4  1  0
  4 11  2  0
  4 33  1  0
  5  6  1  0
  5 10  2  0
  5 33  1  0
  6  7  2  0
  6 20  1  0
  7  8  1  0
  7 21  1  0
  8  9  2  0
  8 22  1  0
  9 10  1  0
  9 23  1  0
 10 11  1  0
 11 12  1  0
 12 24  1  6
 12 25  1  0
 12 13  1  0
 13 14  1  0
 13 26  1  6
 13 27  1  0
 14 15  1  0
 14 28  1  1
 14 29  1  0
 15 16  1  0
 16 19  2  0
 16 38  1  0
 17 18  2  0
 17 32  1  0
 17 37  1  0
 18 19  1  0
 18 31  1  0
 19 30  1  0
 33 34  1  0
 35 36  1  0
 35 39  2  0
 35 42  1  0
 36 37  1  0
 36 40  1  0
 37 38  2  0
 38 39  1  0
 39 41  1  0
M  CHG  1   3  -1
M  END
