51 flip
     RDKit          3D

 44 47  0  0  1  0  0  0  0  0999 V2000
    3.3133  -48.3934    6.5789 O   0  0  0  0  0  0  0  0  0  0  0  0
    2.8064  -49.5366    6.5879 C   0  0  0  0  0  0  0  0  0  0  0  0
    3.4175  -50.6082    6.8325 O   0  0  0  0  0  0  0  0  0  0  0  0
    1.3397  -49.6467    6.3363 C   0  0  0  0  0  0  0  0  0  0  0  0
   -0.5670  -50.8778    6.4022 C   0  0  0  0  0  0  0  0  0  0  0  0
   -1.5051  -51.8978    6.5966 C   0  0  0  0  0  0  0  0  0  0  0  0
   -2.8294  -51.6068    6.2780 C   0  0  0  0  0  0  0  0  0  0  0  0
   -3.1901  -50.3737    5.7430 C   0  0  0  0  0  0  0  0  0  0  0  0
   -2.2505  -49.3662    5.5067 C   0  0  0  0  0  0  0  0  0  0  0  0
   -0.8974  -49.5879    5.8672 C   0  0  0  0  0  0  0  0  0  0  0  0
    0.3307  -48.8017    5.8326 C   0  0  0  0  0  0  0  0  0  0  0  0
    0.5006  -47.3614    5.3518 C   0  0  2  0  0  0  0  0  0  0  0  0
    0.5021  -46.3475    6.5171 C   0  0  2  0  0  0  0  0  0  0  0  0
   -0.8338  -46.2115    7.2731 C   0  0  2  0  0  0  0  0  0  0  0  0
   -1.7993  -45.4750    6.5389 O   0  0  0  0  0  0  0  0  0  0  0  0
   -3.1225  -45.3576    6.9512 C   0  0  0  0  0  0  0  0  0  0  0  0
   -5.8822  -44.8779    7.3608 C   0  0  0  0  0  0  0  0  0  0  0  0
   -5.2543  -44.4347    6.2069 C   0  0  0  0  0  0  0  0  0  0  0  0
   -3.9042  -44.6823    6.0104 C   0  0  0  0  0  0  0  0  0  0  0  0
   -1.2204  -52.8602    6.9965 H   0  0  0  0  0  0  0  0  0  0  0  0
   -3.5923  -52.3594    6.4410 H   0  0  0  0  0  0  0  0  0  0  0  0
   -4.2256  -50.1828    5.4943 H   0  0  0  0  0  0  0  0  0  0  0  0
   -2.7903  -47.9027    4.7659 Cl  0  0  0  0  0  0  0  0  0  0  0  0
   -0.2342  -47.0607    4.6026 H   0  0  0  0  0  0  0  0  0  0  0  0
    1.4665  -47.2718    4.8430 H   0  0  0  0  0  0  0  0  0  0  0  0
    0.8177  -45.3678    6.1517 H   0  0  0  0  0  0  0  0  0  0  0  0
    1.2742  -46.6544    7.2229 H   0  0  0  0  0  0  0  0  0  0  0  0
   -0.6439  -45.6721    8.2020 H   0  0  0  0  0  0  0  0  0  0  0  0
   -1.2043  -47.2128    7.4960 H   0  0  0  0  0  0  0  0  0  0  0  0
   -3.4397  -44.3532    5.0920 H   0  0  0  0  0  0  0  0  0  0  0  0
   -5.1633  -45.5922    8.3430 C   0  0  0  0  0  0  0  0  0  0  0  0
   -3.7562  -45.8319    8.1735 C   0  0  0  0  0  0  0  0  0  0  0  0
   -3.1141  -46.5292    9.2480 C   0  0  0  0  0  0  0  0  0  0  0  0
   -3.8138  -46.9922   10.3593 C   0  0  0  0  0  0  0  0  0  0  0  0
   -5.1779  -46.7765   10.4770 C   0  0  0  0  0  0  0  0  0  0  0  0
   -5.8513  -46.0699    9.4889 C   0  0  0  0  0  0  0  0  0  0  0  0
   -2.0671  -46.7432    9.2706 H   0  0  0  0  0  0  0  0  0  0  0  0
   -3.2817  -47.5274   11.1296 H   0  0  0  0  0  0  0  0  0  0  0  0
   -5.7117  -47.1549   11.3367 H   0  0  0  0  0  0  0  0  0  0  0  0
   -6.9144  -45.8954    9.5861 H   0  0  0  0  0  0  0  0  0  0  0  0
   -5.8183  -43.9073    5.4526 H   0  0  0  0  0  0  0  0  0  0  0  0
   -6.9339  -44.6893    7.5155 H   0  0  0  0  0  0  0  0  0  0  0  0
    0.7909  -50.8757    6.6445 N   0  0  0  0  0  0  0  0  0  0  0  0
    1.4235  -51.5930    6.9879 H   0  0  0  0  0  0  0  0  0  0  0  0
  1  2  2  0
  2  3  1  0
  2  4  1  0
  4 11  2  0
  4 43  1  0
  5  6  1  0
  5 10  2  0
  5 43  1  0
  6  7  2  0
  6 20  1  0
  7  8  1  0
  7 21  1  0
  8  9  2  0
  8 22  1  0
  9 10  1  0
  9 23  1  0
 10 11  1  0
 11 12  1  0
 12 24  1  6
 12 25  1  0
 12 13  1  0
 13 14  1  0
 13 26  1  6
 13 27  1  0
 14 15  1  0
 14 28  1  1
 14 29  1  0
 15 16  1  0
 16 19  2  0
 16 32  1  0
 17 18  2  0
 17 31  1  0
 17 42  1  0
 18 19  1  0
 18 41  1  0
 19 30  1  0
 31 32  2  0
 31 36  1  0
 32 33  1  0
 33 34  2  0
 33 37  1  0
 34 35  1  0
 34 38  1  0
 35 36  2  0
 35 39  1  0
 36 40  1  0
 43 44  1  0
M  CHG  1   3  -1
M  END
