41 flip
     RDKit          3D

 49 52  0  0  1  0  0  0  0  0999 V2000
    3.3169  -48.4012    6.5140 O   0  0  0  0  0  0  0  0  0  0  0  0
    2.8100  -49.5434    6.5876 C   0  0  0  0  0  0  0  0  0  0  0  0
    3.4271  -50.5963    6.8889 O   0  0  0  0  0  0  0  0  0  0  0  0
    1.3538  -49.6796    6.3459 C   0  0  0  0  0  0  0  0  0  0  0  0
   -0.5558  -50.9083    6.3899 C   0  0  0  0  0  0  0  0  0  0  0  0
   -1.5181  -51.9034    6.5557 C   0  0  0  0  0  0  0  0  0  0  0  0
   -2.8355  -51.5604    6.2452 C   0  0  0  0  0  0  0  0  0  0  0  0
   -3.1714  -50.2819    5.7920 C   0  0  0  0  0  0  0  0  0  0  0  0
   -2.2037  -49.2960    5.6290 C   0  0  0  0  0  0  0  0  0  0  0  0
   -0.8683  -49.5923    5.9304 C   0  0  0  0  0  0  0  0  0  0  0  0
    0.3487  -48.8235    5.8937 C   0  0  0  0  0  0  0  0  0  0  0  0
    0.4962  -47.3708    5.4644 C   0  0  2  0  0  0  0  0  0  0  0  0
    0.4958  -46.4025    6.6644 C   0  0  2  0  0  0  0  0  0  0  0  0
   -0.8614  -46.2941    7.3642 C   0  0  2  0  0  0  0  0  0  0  0  0
   -1.7774  -45.7805    6.4104 O   0  0  0  0  0  0  0  0  0  0  0  0
   -3.0947  -45.5877    6.7495 C   0  0  0  0  0  0  0  0  0  0  0  0
   -3.8735  -45.0419    5.7409 C   0  0  0  0  0  0  0  0  0  0  0  0
   -5.2167  -44.7548    5.9688 C   0  0  0  0  0  0  0  0  0  0  0  0
   -5.7786  -44.9385    7.2433 C   0  0  0  0  0  0  0  0  0  0  0  0
   -5.0042  -45.5532    8.2335 C   0  0  0  0  0  0  0  0  0  0  0  0
   -3.6673  -45.8874    7.9929 C   0  0  0  0  0  0  0  0  0  0  0  0
   -1.2681  -52.8904    6.9129 H   0  0  0  0  0  0  0  0  0  0  0  0
   -3.6194  -52.3036    6.3581 H   0  0  0  0  0  0  0  0  0  0  0  0
   -4.2006  -50.0608    5.5694 H   0  0  0  0  0  0  0  0  0  0  0  0
   -2.4526  -48.2926    5.2951 H   0  0  0  0  0  0  0  0  0  0  0  0
   -0.3012  -47.1111    4.7623 H   0  0  0  0  0  0  0  0  0  0  0  0
    1.4334  -47.2513    4.9074 H   0  0  0  0  0  0  0  0  0  0  0  0
    0.7741  -45.4184    6.2963 H   0  0  0  0  0  0  0  0  0  0  0  0
    1.2650  -46.6918    7.3827 H   0  0  0  0  0  0  0  0  0  0  0  0
   -0.7924  -45.6088    8.2107 H   0  0  0  0  0  0  0  0  0  0  0  0
   -1.1766  -47.2741    7.7287 H   0  0  0  0  0  0  0  0  0  0  0  0
   -3.4054  -44.8440    4.7853 H   0  0  0  0  0  0  0  0  0  0  0  0
   -3.0917  -46.3593    8.7748 H   0  0  0  0  0  0  0  0  0  0  0  0
    0.7985  -50.9093    6.6166 N   0  0  0  0  0  0  0  0  0  0  0  0
    1.4014  -51.6464    6.9523 H   0  0  0  0  0  0  0  0  0  0  0  0
   -5.4567  -45.7603    9.1940 H   0  0  0  0  0  0  0  0  0  0  0  0
   -5.8127  -44.3600    5.1588 H   0  0  0  0  0  0  0  0  0  0  0  0
   -7.0755  -44.5588    7.5705 O   0  0  0  0  0  0  0  0  0  0  0  0
   -9.3659  -42.2157    4.9758 C   0  0  0  0  0  0  0  0  0  0  0  0
   -9.9418  -43.2897    5.6627 C   0  0  0  0  0  0  0  0  0  0  0  0
   -9.1686  -44.0339    6.5584 C   0  0  0  0  0  0  0  0  0  0  0  0
   -7.8259  -43.7179    6.7617 C   0  0  0  0  0  0  0  0  0  0  0  0
   -7.2866  -42.5748    6.1481 C   0  0  0  0  0  0  0  0  0  0  0  0
   -8.0388  -41.8562    5.2167 C   0  0  0  0  0  0  0  0  0  0  0  0
   -9.9403  -41.6716    4.2367 H   0  0  0  0  0  0  0  0  0  0  0  0
  -10.9735  -43.5639    5.4764 H   0  0  0  0  0  0  0  0  0  0  0  0
   -9.5841  -44.8878    7.0749 H   0  0  0  0  0  0  0  0  0  0  0  0
   -6.2584  -42.3015    6.3408 H   0  0  0  0  0  0  0  0  0  0  0  0
   -7.5905  -41.0376    4.6677 H   0  0  0  0  0  0  0  0  0  0  0  0
  1  2  2  0
  2  3  1  0
  2  4  1  0
  4 11  2  0
  4 34  1  0
  5  6  1  0
  5 10  2  0
  5 34  1  0
  6  7  2  0
  6 22  1  0
  7  8  1  0
  7 23  1  0
  8  9  2  0
  8 24  1  0
  9 10  1  0
  9 25  1  0
 10 11  1  0
 11 12  1  0
 12 26  1  6
 12 27  1  0
 12 13  1  0
 13 14  1  0
 13 28  1  6
 13 29  1  0
 14 15  1  0
 14 30  1  1
 14 31  1  0
 15 16  1  0
 16 17  1  0
 16 21  2  0
 17 18  2  0
 17 32  1  0
 18 19  1  0
 18 37  1  0
 19 20  2  0
 19 38  1  0
 20 21  1  0
 20 36  1  0
 21 33  1  0
 34 35  1  0
 38 42  1  0
 39 40  2  0
 39 44  1  0
 39 45  1  0
 40 41  1  0
 40 46  1  0
 41 42  2  0
 41 47  1  0
 42 43  1  0
 43 44  2  0
 43 48  1  0
 44 49  1  0
M  CHG  1   3  -1
M  END
