48 flip
     RDKit          3D

 42 45  0  0  1  0  0  0  0  0999 V2000
    3.3463  -48.4013    6.5719 O   0  0  0  0  0  0  0  0  0  0  0  0
    2.8403  -49.5432    6.5846 C   0  0  0  0  0  0  0  0  0  0  0  0
    3.4615  -50.6099    6.8278 O   0  0  0  0  0  0  0  0  0  0  0  0
    1.3715  -49.6640    6.3485 C   0  0  0  0  0  0  0  0  0  0  0  0
   -0.5494  -50.8797    6.4108 C   0  0  0  0  0  0  0  0  0  0  0  0
   -1.5187  -51.8785    6.5696 C   0  0  0  0  0  0  0  0  0  0  0  0
   -2.8358  -51.5416    6.2455 C   0  0  0  0  0  0  0  0  0  0  0  0
   -3.1710  -50.2698    5.7877 C   0  0  0  0  0  0  0  0  0  0  0  0
   -2.2045  -49.2760    5.6259 C   0  0  0  0  0  0  0  0  0  0  0  0
   -0.8626  -49.5709    5.9317 C   0  0  0  0  0  0  0  0  0  0  0  0
    0.3613  -48.8136    5.8678 C   0  0  0  0  0  0  0  0  0  0  0  0
    0.4873  -47.3818    5.3798 C   0  0  2  0  0  0  0  0  0  0  0  0
    0.4699  -46.3747    6.5454 C   0  0  2  0  0  0  0  0  0  0  0  0
   -0.8925  -46.2716    7.2532 C   0  0  2  0  0  0  0  0  0  0  0  0
   -1.8525  -45.6924    6.3733 O   0  0  0  0  0  0  0  0  0  0  0  0
   -3.1547  -45.4791    6.7919 C   0  0  0  0  0  0  0  0  0  0  0  0
   -5.8787  -44.8787    7.4148 C   0  0  0  0  0  0  0  0  0  0  0  0
   -5.2835  -44.4366    6.2354 C   0  0  0  0  0  0  0  0  0  0  0  0
   -3.9602  -44.7362    5.9318 C   0  0  0  0  0  0  0  0  0  0  0  0
   -1.2700  -52.8651    6.9285 H   0  0  0  0  0  0  0  0  0  0  0  0
   -3.6193  -52.2830    6.3494 H   0  0  0  0  0  0  0  0  0  0  0  0
   -4.2037  -50.0448    5.5545 H   0  0  0  0  0  0  0  0  0  0  0  0
   -2.4810  -48.2904    5.2830 H   0  0  0  0  0  0  0  0  0  0  0  0
   -0.3046  -47.1295    4.6721 H   0  0  0  0  0  0  0  0  0  0  0  0
    1.4184  -47.2614    4.8200 H   0  0  0  0  0  0  0  0  0  0  0  0
    0.7562  -45.3854    6.1826 H   0  0  0  0  0  0  0  0  0  0  0  0
    1.2359  -46.6699    7.2644 H   0  0  0  0  0  0  0  0  0  0  0  0
   -0.8002  -45.6583    8.1526 H   0  0  0  0  0  0  0  0  0  0  0  0
   -1.2045  -47.2743    7.5460 H   0  0  0  0  0  0  0  0  0  0  0  0
   -3.5247  -44.3845    5.0065 H   0  0  0  0  0  0  0  0  0  0  0  0
   -5.8579  -43.8498    5.5360 H   0  0  0  0  0  0  0  0  0  0  0  0
   -6.9068  -44.6460    7.6456 H   0  0  0  0  0  0  0  0  0  0  0  0
    0.8137  -50.8947    6.6419 N   0  0  0  0  0  0  0  0  0  0  0  0
    1.4374  -51.6278    6.9676 H   0  0  0  0  0  0  0  0  0  0  0  0
   -4.3488  -46.8957   10.0054 C   0  0  0  0  0  0  0  0  0  0  0  0
   -5.4246  -46.2237    9.4856 N   0  0  0  0  0  0  0  0  0  0  0  0
   -5.0930  -45.6450    8.2788 C   0  0  0  0  0  0  0  0  0  0  0  0
   -3.7230  -45.9654    8.0061 C   0  0  0  0  0  0  0  0  0  0  0  0
   -3.2875  -46.7557    9.1397 C   0  0  0  0  0  0  0  0  0  0  0  0
   -6.3248  -46.1856    9.9409 H   0  0  0  0  0  0  0  0  0  0  0  0
   -2.3138  -47.1944    9.3023 H   0  0  0  0  0  0  0  0  0  0  0  0
   -4.4310  -47.4253   10.9487 H   0  0  0  0  0  0  0  0  0  0  0  0
  1  2  2  0
  2  3  1  0
  2  4  1  0
  4 11  2  0
  4 33  1  0
  5  6  1  0
  5 10  2  0
  5 33  1  0
  6  7  2  0
  6 20  1  0
  7  8  1  0
  7 21  1  0
  8  9  2  0
  8 22  1  0
  9 10  1  0
  9 23  1  0
 10 11  1  0
 11 12  1  0
 12 24  1  6
 12 25  1  0
 12 13  1  0
 13 14  1  0
 13 26  1  6
 13 27  1  0
 14 15  1  0
 14 28  1  1
 14 29  1  0
 15 16  1  0
 16 19  2  0
 16 38  1  0
 17 18  2  0
 17 32  1  0
 17 37  1  0
 18 19  1  0
 18 31  1  0
 19 30  1  0
 33 34  1  0
 35 36  1  0
 35 39  2  0
 35 42  1  0
 36 37  1  0
 36 40  1  0
 37 38  2  0
 38 39  1  0
 39 41  1  0
M  CHG  1   3  -1
M  END
