23 flip
     RDKit          3D

 43 46  0  0  1  0  0  0  0  0999 V2000
    3.2351  -48.0922    6.5027 O   0  0  0  0  0  0  0  0  0  0  0  0
    2.9244  -49.3085    6.5201 C   0  0  0  0  0  0  0  0  0  0  0  0
    3.7530  -50.2365    6.6577 O   0  0  0  0  0  0  0  0  0  0  0  0
    1.4832  -49.6625    6.3711 C   0  0  0  0  0  0  0  0  0  0  0  0
    1.0301  -51.3090    6.8082 S   0  0  0  0  0  0  0  0  0  0  0  0
   -0.6448  -50.9956    6.4368 C   0  0  0  0  0  0  0  0  0  0  0  0
   -1.7034  -51.9067    6.5520 C   0  0  0  0  0  0  0  0  0  0  0  0
   -2.9751  -51.4721    6.1958 C   0  0  0  0  0  0  0  0  0  0  0  0
   -3.1983  -50.1764    5.7493 C   0  0  0  0  0  0  0  0  0  0  0  0
   -2.1447  -49.2729    5.6409 C   0  0  0  0  0  0  0  0  0  0  0  0
   -0.8343  -49.6603    5.9759 C   0  0  0  0  0  0  0  0  0  0  0  0
    0.3832  -48.9000    5.9255 C   0  0  0  0  0  0  0  0  0  0  0  0
    0.4418  -47.4554    5.4116 C   0  0  2  0  0  0  0  0  0  0  0  0
    0.4647  -46.4000    6.5292 C   0  0  2  0  0  0  0  0  0  0  0  0
   -0.8836  -46.2444    7.2217 C   0  0  2  0  0  0  0  0  0  0  0  0
   -1.8845  -45.6789    6.3920 O   0  0  0  0  0  0  0  0  0  0  0  0
   -3.1677  -45.4619    6.8669 C   0  0  0  0  0  0  0  0  0  0  0  0
   -5.8930  -44.8576    7.3656 C   0  0  0  0  0  0  0  0  0  0  0  0
   -5.2703  -44.4249    6.2020 C   0  0  0  0  0  0  0  0  0  0  0  0
   -3.9456  -44.7559    5.9623 C   0  0  0  0  0  0  0  0  0  0  0  0
   -1.5353  -52.9158    6.9015 H   0  0  0  0  0  0  0  0  0  0  0  0
   -3.8063  -52.1581    6.2710 H   0  0  0  0  0  0  0  0  0  0  0  0
   -4.2023  -49.8731    5.4839 H   0  0  0  0  0  0  0  0  0  0  0  0
   -2.3279  -48.2659    5.3062 H   0  0  0  0  0  0  0  0  0  0  0  0
   -0.3799  -47.2317    4.7304 H   0  0  0  0  0  0  0  0  0  0  0  0
    1.3402  -47.3261    4.8094 H   0  0  0  0  0  0  0  0  0  0  0  0
    0.8003  -45.4334    6.1551 H   0  0  0  0  0  0  0  0  0  0  0  0
    1.2015  -46.6950    7.2823 H   0  0  0  0  0  0  0  0  0  0  0  0
   -0.7400  -45.5892    8.0858 H   0  0  0  0  0  0  0  0  0  0  0  0
   -1.1766  -47.2531    7.5243 H   0  0  0  0  0  0  0  0  0  0  0  0
   -3.4818  -44.4551    5.0394 H   0  0  0  0  0  0  0  0  0  0  0  0
   -5.1776  -45.6073    8.3331 C   0  0  0  0  0  0  0  0  0  0  0  0
   -3.7769  -45.8823    8.1269 C   0  0  0  0  0  0  0  0  0  0  0  0
   -3.1060  -46.5536    9.2026 C   0  0  0  0  0  0  0  0  0  0  0  0
   -3.7901  -47.0071   10.3248 C   0  0  0  0  0  0  0  0  0  0  0  0
   -5.1503  -46.7959   10.4615 C   0  0  0  0  0  0  0  0  0  0  0  0
   -5.8374  -46.0825    9.4897 C   0  0  0  0  0  0  0  0  0  0  0  0
   -2.0554  -46.7476    9.2241 H   0  0  0  0  0  0  0  0  0  0  0  0
   -3.2580  -47.5461   11.0960 H   0  0  0  0  0  0  0  0  0  0  0  0
   -5.6685  -47.1691   11.3309 H   0  0  0  0  0  0  0  0  0  0  0  0
   -6.8865  -45.8897    9.6056 H   0  0  0  0  0  0  0  0  0  0  0  0
   -5.8178  -43.8381    5.4775 H   0  0  0  0  0  0  0  0  0  0  0  0
   -6.9308  -44.6040    7.5276 H   0  0  0  0  0  0  0  0  0  0  0  0
  1  2  2  0
  2  3  1  0
  2  4  1  0
  4  5  1  0
  4 12  2  0
  5  6  1  0
  6  7  1  0
  6 11  2  0
  7  8  2  0
  7 21  1  0
  8  9  1  0
  8 22  1  0
  9 10  2  0
  9 23  1  0
 10 11  1  0
 10 24  1  0
 11 12  1  0
 12 13  1  0
 13 25  1  6
 13 26  1  0
 13 14  1  0
 14 15  1  0
 14 27  1  6
 14 28  1  0
 15 16  1  0
 15 29  1  1
 15 30  1  0
 16 17  1  0
 17 20  2  0
 17 33  1  0
 18 19  2  0
 18 32  1  0
 18 43  1  0
 19 20  1  0
 19 42  1  0
 20 31  1  0
 32 33  2  0
 32 37  1  0
 33 34  1  0
 34 35  2  0
 34 38  1  0
 35 36  1  0
 35 39  1  0
 36 37  2  0
 36 40  1  0
 37 41  1  0
M  CHG  1   3  -1
M  END
