40 flip
     RDKit          3D

 49 52  0  0  1  0  0  0  0  0999 V2000
    3.3281  -48.3968    6.5764 O   0  0  0  0  0  0  0  0  0  0  0  0
    2.8290  -49.5415    6.5841 C   0  0  0  0  0  0  0  0  0  0  0  0
    3.4538  -50.6069    6.8243 O   0  0  0  0  0  0  0  0  0  0  0  0
    1.3597  -49.6641    6.3509 C   0  0  0  0  0  0  0  0  0  0  0  0
   -0.5586  -50.8828    6.4118 C   0  0  0  0  0  0  0  0  0  0  0  0
   -1.5260  -51.8832    6.5693 C   0  0  0  0  0  0  0  0  0  0  0  0
   -2.8440  -51.5489    6.2459 C   0  0  0  0  0  0  0  0  0  0  0  0
   -3.1802  -50.2775    5.7871 C   0  0  0  0  0  0  0  0  0  0  0  0
   -2.2160  -49.2810    5.6271 C   0  0  0  0  0  0  0  0  0  0  0  0
   -0.8742  -49.5732    5.9368 C   0  0  0  0  0  0  0  0  0  0  0  0
    0.3474  -48.8122    5.8783 C   0  0  0  0  0  0  0  0  0  0  0  0
    0.4741  -47.3774    5.3978 C   0  0  2  0  0  0  0  0  0  0  0  0
    0.4619  -46.3786    6.5682 C   0  0  2  0  0  0  0  0  0  0  0  0
   -0.9106  -46.2392    7.2407 C   0  0  2  0  0  0  0  0  0  0  0  0
   -1.8340  -45.6444    6.3223 O   0  0  0  0  0  0  0  0  0  0  0  0
   -3.1383  -45.4404    6.7220 C   0  0  0  0  0  0  0  0  0  0  0  0
   -3.6696  -45.9179    7.9239 C   0  0  0  0  0  0  0  0  0  0  0  0
   -4.9964  -45.6550    8.2927 C   0  0  0  0  0  0  0  0  0  0  0  0
   -5.7929  -44.9015    7.4320 C   0  0  0  0  0  0  0  0  0  0  0  0
   -5.2814  -44.4300    6.2224 C   0  0  0  0  0  0  0  0  0  0  0  0
   -3.9598  -44.7044    5.8710 C   0  0  0  0  0  0  0  0  0  0  0  0
   -1.2730  -52.8701    6.9263 H   0  0  0  0  0  0  0  0  0  0  0  0
   -3.6280  -52.2908    6.3469 H   0  0  0  0  0  0  0  0  0  0  0  0
   -4.2117  -50.0544    5.5483 H   0  0  0  0  0  0  0  0  0  0  0  0
   -2.4954  -48.2988    5.2788 H   0  0  0  0  0  0  0  0  0  0  0  0
   -0.3213  -47.1176    4.6969 H   0  0  0  0  0  0  0  0  0  0  0  0
    1.4029  -47.2567    4.8331 H   0  0  0  0  0  0  0  0  0  0  0  0
    0.7798  -45.3920    6.2249 H   0  0  0  0  0  0  0  0  0  0  0  0
    1.2023  -46.6924    7.3044 H   0  0  0  0  0  0  0  0  0  0  0  0
   -0.8124  -45.6059    8.1247 H   0  0  0  0  0  0  0  0  0  0  0  0
   -1.2579  -47.2206    7.5771 H   0  0  0  0  0  0  0  0  0  0  0  0
   -3.0500  -46.5031    8.5824 H   0  0  0  0  0  0  0  0  0  0  0  0
   -3.5491  -44.3398    4.9403 H   0  0  0  0  0  0  0  0  0  0  0  0
    0.8047  -50.8975    6.6400 N   0  0  0  0  0  0  0  0  0  0  0  0
    1.4301  -51.6311    6.9622 H   0  0  0  0  0  0  0  0  0  0  0  0
   -5.9021  -43.8503    5.5580 H   0  0  0  0  0  0  0  0  0  0  0  0
   -6.8135  -44.6861    7.7086 H   0  0  0  0  0  0  0  0  0  0  0  0
   -5.5546  -46.1064    9.4741 O   0  0  0  0  0  0  0  0  0  0  0  0
   -3.3215  -48.9542   11.4860 C   0  0  0  0  0  0  0  0  0  0  0  0
   -2.8316  -47.6538   11.3661 C   0  0  0  0  0  0  0  0  0  0  0  0
   -3.6095  -46.6821   10.7412 C   0  0  0  0  0  0  0  0  0  0  0  0
   -4.8602  -47.0211   10.2268 C   0  0  0  0  0  0  0  0  0  0  0  0
   -5.3570  -48.3159   10.3687 C   0  0  0  0  0  0  0  0  0  0  0  0
   -4.5831  -49.2895   10.9950 C   0  0  0  0  0  0  0  0  0  0  0  0
   -2.7127  -49.7146   11.9541 H   0  0  0  0  0  0  0  0  0  0  0  0
   -1.8499  -47.4040   11.7419 H   0  0  0  0  0  0  0  0  0  0  0  0
   -3.2341  -45.6790   10.6076 H   0  0  0  0  0  0  0  0  0  0  0  0
   -6.3174  -48.5681    9.9456 H   0  0  0  0  0  0  0  0  0  0  0  0
   -4.9532  -50.3011   11.0820 H   0  0  0  0  0  0  0  0  0  0  0  0
  1  2  2  0
  2  3  1  0
  2  4  1  0
  4 11  2  0
  4 34  1  0
  5  6  1  0
  5 10  2  0
  5 34  1  0
  6  7  2  0
  6 22  1  0
  7  8  1  0
  7 23  1  0
  8  9  2  0
  8 24  1  0
  9 10  1  0
  9 25  1  0
 10 11  1  0
 11 12  1  0
 12 26  1  6
 12 27  1  0
 12 13  1  0
 13 14  1  0
 13 28  1  6
 13 29  1  0
 14 15  1  0
 14 30  1  1
 14 31  1  0
 15 16  1  0
 16 17  1  0
 16 21  2  0
 17 18  2  0
 17 32  1  0
 18 19  1  0
 18 38  1  0
 19 20  2  0
 19 37  1  0
 20 21  1  0
 20 36  1  0
 21 33  1  0
 34 35  1  0
 38 42  1  0
 39 40  2  0
 39 44  1  0
 39 45  1  0
 40 41  1  0
 40 46  1  0
 41 42  2  0
 41 47  1  0
 42 43  1  0
 43 44  2  0
 43 48  1  0
 44 49  1  0
M  CHG  1   3  -1
M  END
