26 flip
     RDKit          3D

 43 46  0  0  1  0  0  0  0  0999 V2000
    3.2838  -48.3668    6.6140 O   0  0  0  0  0  0  0  0  0  0  0  0
    2.8138  -49.5313    6.5772 C   0  0  0  0  0  0  0  0  0  0  0  0
    3.4960  -50.5752    6.7395 O   0  0  0  0  0  0  0  0  0  0  0  0
    1.3395  -49.6913    6.3457 C   0  0  0  0  0  0  0  0  0  0  0  0
   -0.5684  -50.8165    6.3942 C   0  0  0  0  0  0  0  0  0  0  0  0
   -1.5234  -51.8342    6.5594 C   0  0  0  0  0  0  0  0  0  0  0  0
   -2.8460  -51.5235    6.2367 C   0  0  0  0  0  0  0  0  0  0  0  0
   -3.1931  -50.2525    5.7804 C   0  0  0  0  0  0  0  0  0  0  0  0
   -2.2360  -49.2436    5.6148 C   0  0  0  0  0  0  0  0  0  0  0  0
   -0.8920  -49.5299    5.9090 C   0  0  0  0  0  0  0  0  0  0  0  0
    0.3443  -48.8024    5.8458 C   0  0  0  0  0  0  0  0  0  0  0  0
    0.4971  -47.3761    5.3445 C   0  0  2  0  0  0  0  0  0  0  0  0
    0.4907  -46.3524    6.4961 C   0  0  2  0  0  0  0  0  0  0  0  0
   -0.8429  -46.2392    7.2561 C   0  0  2  0  0  0  0  0  0  0  0  0
   -1.8534  -45.6519    6.4557 O   0  0  0  0  0  0  0  0  0  0  0  0
   -3.1503  -45.4467    6.9068 C   0  0  0  0  0  0  0  0  0  0  0  0
   -5.8843  -44.8723    7.3605 C   0  0  0  0  0  0  0  0  0  0  0  0
   -5.2585  -44.4374    6.2022 C   0  0  0  0  0  0  0  0  0  0  0  0
   -3.9232  -44.7402    5.9793 C   0  0  0  0  0  0  0  0  0  0  0  0
   -1.2347  -52.8077    6.9228 H   0  0  0  0  0  0  0  0  0  0  0  0
   -3.6178  -52.2791    6.3447 H   0  0  0  0  0  0  0  0  0  0  0  0
   -4.2306  -50.0419    5.5537 H   0  0  0  0  0  0  0  0  0  0  0  0
   -2.5192  -48.2580    5.2672 H   0  0  0  0  0  0  0  0  0  0  0  0
   -0.2786  -47.1260    4.6221 H   0  0  0  0  0  0  0  0  0  0  0  0
    1.4347  -47.2793    4.7937 H   0  0  0  0  0  0  0  0  0  0  0  0
    0.7701  -45.3688    6.1152 H   0  0  0  0  0  0  0  0  0  0  0  0
    1.2767  -46.6323    7.2002 H   0  0  0  0  0  0  0  0  0  0  0  0
   -0.6928  -45.6158    8.1374 H   0  0  0  0  0  0  0  0  0  0  0  0
   -1.1445  -47.2411    7.5501 H   0  0  0  0  0  0  0  0  0  0  0  0
   -3.4631  -44.4181    5.0543 H   0  0  0  0  0  0  0  0  0  0  0  0
   -5.1723  -45.6048    8.3347 C   0  0  0  0  0  0  0  0  0  0  0  0
   -3.7720  -45.8750    8.1522 C   0  0  0  0  0  0  0  0  0  0  0  0
   -3.1230  -46.5586    9.2344 C   0  0  0  0  0  0  0  0  0  0  0  0
   -3.8186  -46.9958   10.3565 C   0  0  0  0  0  0  0  0  0  0  0  0
   -5.1810  -46.7698   10.4774 C   0  0  0  0  0  0  0  0  0  0  0  0
   -5.8571  -46.0677    9.4880 C   0  0  0  0  0  0  0  0  0  0  0  0
   -2.0749  -46.7747    9.2598 H   0  0  0  0  0  0  0  0  0  0  0  0
   -3.2837  -47.5190   11.1352 H   0  0  0  0  0  0  0  0  0  0  0  0
   -5.7098  -47.1313   11.3474 H   0  0  0  0  0  0  0  0  0  0  0  0
   -6.9173  -45.8730    9.5963 H   0  0  0  0  0  0  0  0  0  0  0  0
   -5.8123  -43.8751    5.4646 H   0  0  0  0  0  0  0  0  0  0  0  0
   -6.9255  -44.6460    7.5324 H   0  0  0  0  0  0  0  0  0  0  0  0
    0.7673  -50.9145    6.6618 O   0  0  0  0  0  0  0  0  0  0  0  0
  1  2  2  0
  2  3  1  0
  2  4  1  0
  4 11  2  0
  4 43  1  0
  5  6  1  0
  5 10  2  0
  5 43  1  0
  6  7  2  0
  6 20  1  0
  7  8  1  0
  7 21  1  0
  8  9  2  0
  8 22  1  0
  9 10  1  0
  9 23  1  0
 10 11  1  0
 11 12  1  0
 12 24  1  6
 12 25  1  0
 12 13  1  0
 13 14  1  0
 13 26  1  6
 13 27  1  0
 14 15  1  0
 14 28  1  1
 14 29  1  0
 15 16  1  0
 16 19  2  0
 16 32  1  0
 17 18  2  0
 17 31  1  0
 17 42  1  0
 18 19  1  0
 18 41  1  0
 19 30  1  0
 31 32  2  0
 31 36  1  0
 32 33  1  0
 33 34  2  0
 33 37  1  0
 34 35  1  0
 34 38  1  0
 35 36  2  0
 35 39  1  0
 36 40  1  0
M  CHG  1   3  -1
M  END
