43
     RDKit          3D

 44 47  0  0  1  0  0  0  0  0999 V2000
    3.3252  -48.3918    6.5855 O   0  0  0  0  0  0  0  0  0  0  0  0
    2.8366  -49.5414    6.5828 C   0  0  0  0  0  0  0  0  0  0  0  0
    3.4717  -50.6036    6.8099 O   0  0  0  0  0  0  0  0  0  0  0  0
    1.3675  -49.6700    6.3524 C   0  0  0  0  0  0  0  0  0  0  0  0
   -0.5511  -50.8889    6.4113 C   0  0  0  0  0  0  0  0  0  0  0  0
   -1.5218  -51.8869    6.5673 C   0  0  0  0  0  0  0  0  0  0  0  0
   -2.8388  -51.5483    6.2435 C   0  0  0  0  0  0  0  0  0  0  0  0
   -3.1734  -50.2760    5.7863 C   0  0  0  0  0  0  0  0  0  0  0  0
   -2.2067  -49.2825    5.6293 C   0  0  0  0  0  0  0  0  0  0  0  0
   -0.8666  -49.5783    5.9397 C   0  0  0  0  0  0  0  0  0  0  0  0
    0.3528  -48.8169    5.8871 C   0  0  0  0  0  0  0  0  0  0  0  0
    0.4699  -47.3799    5.4176 C   0  0  2  0  0  0  0  0  0  0  0  0
    0.4429  -46.3880    6.5950 C   0  0  2  0  0  0  0  0  0  0  0  0
   -0.9260  -46.2660    7.2891 C   0  0  2  0  0  0  0  0  0  0  0  0
   -1.8637  -45.7087    6.3650 O   0  0  0  0  0  0  0  0  0  0  0  0
   -3.1639  -45.4783    6.7625 C   0  0  0  0  0  0  0  0  0  0  0  0
   -5.0458  -45.6564    8.2921 C   0  0  0  0  0  0  0  0  0  0  0  0
   -3.7231  -45.9450    7.9584 C   0  0  0  0  0  0  0  0  0  0  0  0
   -1.2735  -52.8744    6.9245 H   0  0  0  0  0  0  0  0  0  0  0  0
   -3.6239  -52.2880    6.3451 H   0  0  0  0  0  0  0  0  0  0  0  0
   -4.2043  -50.0492    5.5487 H   0  0  0  0  0  0  0  0  0  0  0  0
   -2.4808  -48.2972    5.2849 H   0  0  0  0  0  0  0  0  0  0  0  0
   -0.3217  -47.1274    4.7103 H   0  0  0  0  0  0  0  0  0  0  0  0
    1.4017  -47.2458    4.8616 H   0  0  0  0  0  0  0  0  0  0  0  0
    0.7477  -45.3998    6.2455 H   0  0  0  0  0  0  0  0  0  0  0  0
    1.1971  -46.6954    7.3197 H   0  0  0  0  0  0  0  0  0  0  0  0
   -0.8341  -45.6114    8.1592 H   0  0  0  0  0  0  0  0  0  0  0  0
   -1.2484  -47.2466    7.6493 H   0  0  0  0  0  0  0  0  0  0  0  0
   -3.1397  -46.5449    8.6388 H   0  0  0  0  0  0  0  0  0  0  0  0
   -3.9464  -44.7271    5.8897 C   0  0  0  0  0  0  0  0  0  0  0  0
   -5.4692  -46.0220    9.2155 H   0  0  0  0  0  0  0  0  0  0  0  0
   -5.2888  -44.4058    6.1981 C   0  0  0  0  0  0  0  0  0  0  0  0
   -5.8479  -44.8783    7.4227 C   0  0  0  0  0  0  0  0  0  0  0  0
   -7.1901  -44.5551    7.7346 C   0  0  0  0  0  0  0  0  0  0  0  0
   -7.9513  -43.7828    6.8584 C   0  0  0  0  0  0  0  0  0  0  0  0
   -7.4045  -43.3222    5.6639 C   0  0  0  0  0  0  0  0  0  0  0  0
   -6.0872  -43.6269    5.3268 C   0  0  0  0  0  0  0  0  0  0  0  0
   -7.6188  -44.9123    8.6596 H   0  0  0  0  0  0  0  0  0  0  0  0
   -8.9733  -43.5409    7.1086 H   0  0  0  0  0  0  0  0  0  0  0  0
   -8.0071  -42.7253    4.9959 H   0  0  0  0  0  0  0  0  0  0  0  0
   -5.6658  -43.2692    4.3992 H   0  0  0  0  0  0  0  0  0  0  0  0
   -3.5117  -44.3770    4.9669 H   0  0  0  0  0  0  0  0  0  0  0  0
    0.8131  -50.9036    6.6391 N   0  0  0  0  0  0  0  0  0  0  0  0
    1.4374  -51.6377    6.9607 H   0  0  0  0  0  0  0  0  0  0  0  0
  1  2  2  0
  2  3  1  0
  2  4  1  0
  4 11  2  0
  4 43  1  0
  5  6  1  0
  5 10  2  0
  5 43  1  0
  6  7  2  0
  6 19  1  0
  7  8  1  0
  7 20  1  0
  8  9  2  0
  8 21  1  0
  9 10  1  0
  9 22  1  0
 10 11  1  0
 11 12  1  0
 12 23  1  6
 12 24  1  0
 12 13  1  0
 13 14  1  0
 13 25  1  6
 13 26  1  0
 14 15  1  0
 14 27  1  1
 14 28  1  0
 15 16  1  0
 16 18  2  0
 16 30  1  0
 17 18  1  0
 17 31  1  0
 17 33  2  0
 18 29  1  0
 30 32  2  0
 30 42  1  0
 32 33  1  0
 32 37  1  0
 33 34  1  0
 34 35  2  0
 34 38  1  0
 35 36  1  0
 35 39  1  0
 36 37  2  0
 36 40  1  0
 37 41  1  0
 43 44  1  0
M  CHG  1   3  -1
M  END
