45
     RDKit          3D

 48 51  0  0  1  0  0  0  0  0999 V2000
    3.3312  -48.3960    6.5762 O   0  0  0  0  0  0  0  0  0  0  0  0
    2.8363  -49.5428    6.5799 C   0  0  0  0  0  0  0  0  0  0  0  0
    3.4672  -50.6072    6.8103 O   0  0  0  0  0  0  0  0  0  0  0  0
    1.3663  -49.6680    6.3511 C   0  0  0  0  0  0  0  0  0  0  0  0
   -0.5522  -50.8875    6.4088 C   0  0  0  0  0  0  0  0  0  0  0  0
   -1.5214  -51.8872    6.5634 C   0  0  0  0  0  0  0  0  0  0  0  0
   -2.8393  -51.5498    6.2413 C   0  0  0  0  0  0  0  0  0  0  0  0
   -3.1755  -50.2772    5.7868 C   0  0  0  0  0  0  0  0  0  0  0  0
   -2.2102  -49.2818    5.6303 C   0  0  0  0  0  0  0  0  0  0  0  0
   -0.8690  -49.5766    5.9394 C   0  0  0  0  0  0  0  0  0  0  0  0
    0.3507  -48.8145    5.8879 C   0  0  0  0  0  0  0  0  0  0  0  0
    0.4660  -47.3763    5.4227 C   0  0  2  0  0  0  0  0  0  0  0  0
    0.4376  -46.3888    6.6039 C   0  0  2  0  0  0  0  0  0  0  0  0
   -0.9273  -46.2834    7.3091 C   0  0  2  0  0  0  0  0  0  0  0  0
   -1.8620  -45.7312    6.3822 O   0  0  0  0  0  0  0  0  0  0  0  0
   -3.1708  -45.4938    6.7580 C   0  0  0  0  0  0  0  0  0  0  0  0
   -5.8018  -44.8705    7.4279 C   0  0  0  0  0  0  0  0  0  0  0  0
   -5.0361  -45.6415    8.2947 C   0  0  0  0  0  0  0  0  0  0  0  0
   -3.7215  -45.9492    7.9629 C   0  0  0  0  0  0  0  0  0  0  0  0
   -1.2716  -52.8751    6.9200 H   0  0  0  0  0  0  0  0  0  0  0  0
   -3.6237  -52.2903    6.3429 H   0  0  0  0  0  0  0  0  0  0  0  0
   -4.2071  -50.0516    5.5514 H   0  0  0  0  0  0  0  0  0  0  0  0
   -2.4869  -48.2960    5.2900 H   0  0  0  0  0  0  0  0  0  0  0  0
   -0.3262  -47.1221    4.7168 H   0  0  0  0  0  0  0  0  0  0  0  0
    1.3973  -47.2391    4.8665 H   0  0  0  0  0  0  0  0  0  0  0  0
    0.7241  -45.3962    6.2509 H   0  0  0  0  0  0  0  0  0  0  0  0
    1.2043  -46.6853    7.3191 H   0  0  0  0  0  0  0  0  0  0  0  0
   -0.8356  -45.6242    8.1755 H   0  0  0  0  0  0  0  0  0  0  0  0
   -1.2456  -47.2653    7.6698 H   0  0  0  0  0  0  0  0  0  0  0  0
   -3.1433  -46.5482    8.6491 H   0  0  0  0  0  0  0  0  0  0  0  0
   -5.2832  -44.4068    6.2162 C   0  0  0  0  0  0  0  0  0  0  0  0
   -3.9516  -44.7332    5.8700 C   0  0  0  0  0  0  0  0  0  0  0  0
   -3.3230  -44.2095    4.5712 C   0  0  2  0  0  0  0  0  0  0  0  0
   -4.3499  -43.6945    3.5492 C   0  0  2  0  0  0  0  0  0  0  0  0
   -5.3806  -42.7921    4.2344 C   0  0  2  0  0  0  0  0  0  0  0  0
   -6.1753  -43.5971    5.2763 C   0  0  2  0  0  0  0  0  0  0  0  0
   -5.4607  -46.0016    9.2187 H   0  0  0  0  0  0  0  0  0  0  0  0
   -6.8234  -44.6422    7.6920 H   0  0  0  0  0  0  0  0  0  0  0  0
   -2.7093  -44.9903    4.1163 H   0  0  0  0  0  0  0  0  0  0  0  0
   -2.6362  -43.4048    4.8383 H   0  0  0  0  0  0  0  0  0  0  0  0
   -4.8547  -44.5386    3.0762 H   0  0  0  0  0  0  0  0  0  0  0  0
   -3.8384  -43.1563    2.7515 H   0  0  0  0  0  0  0  0  0  0  0  0
   -6.0591  -42.3621    3.4962 H   0  0  0  0  0  0  0  0  0  0  0  0
   -4.8757  -41.9520    4.7153 H   0  0  0  0  0  0  0  0  0  0  0  0
   -6.8118  -42.9245    5.8516 H   0  0  0  0  0  0  0  0  0  0  0  0
   -6.8412  -44.2906    4.7617 H   0  0  0  0  0  0  0  0  0  0  0  0
    0.8119  -50.9018    6.6374 N   0  0  0  0  0  0  0  0  0  0  0  0
    1.4372  -51.6355    6.9576 H   0  0  0  0  0  0  0  0  0  0  0  0
  1  2  2  0
  2  3  1  0
  2  4  1  0
  4 11  2  0
  4 47  1  0
  5  6  1  0
  5 10  2  0
  5 47  1  0
  6  7  2  0
  6 20  1  0
  7  8  1  0
  7 21  1  0
  8  9  2  0
  8 22  1  0
  9 10  1  0
  9 23  1  0
 10 11  1  0
 11 12  1  0
 12 24  1  6
 12 25  1  0
 12 13  1  0
 13 14  1  0
 13 26  1  6
 13 27  1  0
 14 15  1  0
 14 28  1  1
 14 29  1  0
 15 16  1  0
 16 19  2  0
 16 32  1  0
 17 18  2  0
 17 31  1  0
 17 38  1  0
 18 19  1  0
 18 37  1  0
 19 30  1  0
 31 32  2  0
 31 36  1  0
 32 33  1  0
 33 34  1  0
 33 39  1  6
 33 40  1  0
 34 35  1  0
 34 41  1  6
 34 42  1  0
 35 36  1  0
 35 43  1  6
 35 44  1  0
 36 45  1  1
 36 46  1  0
 47 48  1  0
M  CHG  1   3  -1
M  END
