62
     RDKit          3D

 43 46  0  0  1  0  0  0  0  0999 V2000
    3.2254  -48.0955    6.4459 O   0  0  0  0  0  0  0  0  0  0  0  0
    2.8899  -49.2995    6.5265 C   0  0  0  0  0  0  0  0  0  0  0  0
    3.6971  -50.2368    6.7409 O   0  0  0  0  0  0  0  0  0  0  0  0
    1.4472  -49.6390    6.3500 C   0  0  0  0  0  0  0  0  0  0  0  0
    0.9998  -51.2655    6.8253 S   0  0  0  0  0  0  0  0  0  0  0  0
   -0.6583  -50.9737    6.4128 C   0  0  0  0  0  0  0  0  0  0  0  0
   -1.6756  -51.9187    6.5804 C   0  0  0  0  0  0  0  0  0  0  0  0
   -2.9634  -51.5442    6.2349 C   0  0  0  0  0  0  0  0  0  0  0  0
   -3.2210  -50.2928    5.6922 C   0  0  0  0  0  0  0  0  0  0  0  0
   -2.2112  -49.3553    5.4881 C   0  0  0  0  0  0  0  0  0  0  0  0
   -0.8768  -49.6583    5.8802 C   0  0  0  0  0  0  0  0  0  0  0  0
    0.3533  -48.8819    5.8554 C   0  0  0  0  0  0  0  0  0  0  0  0
    0.4745  -47.4292    5.3551 C   0  0  2  0  0  0  0  0  0  0  0  0
    0.4789  -46.3900    6.5015 C   0  0  2  0  0  0  0  0  0  0  0  0
   -0.8383  -46.2382    7.2881 C   0  0  2  0  0  0  0  0  0  0  0  0
   -1.7905  -45.4594    6.5791 O   0  0  0  0  0  0  0  0  0  0  0  0
   -3.1177  -45.3488    6.9772 C   0  0  0  0  0  0  0  0  0  0  0  0
   -5.6766  -45.3616    8.1966 C   0  0  0  0  0  0  0  0  0  0  0  0
   -4.5906  -45.9539    8.8290 C   0  0  0  0  0  0  0  0  0  0  0  0
   -3.3431  -45.9423    8.2216 C   0  0  0  0  0  0  0  0  0  0  0  0
   -1.4601  -52.9014    6.9866 H   0  0  0  0  0  0  0  0  0  0  0  0
   -3.7800  -52.2366    6.3901 H   0  0  0  0  0  0  0  0  0  0  0  0
   -4.2318  -50.0350    5.4169 H   0  0  0  0  0  0  0  0  0  0  0  0
   -2.6869  -47.8657    4.7524 Cl  0  0  0  0  0  0  0  0  0  0  0  0
   -0.2449  -47.1471    4.5850 H   0  0  0  0  0  0  0  0  0  0  0  0
    1.4249  -47.3268    4.8262 H   0  0  0  0  0  0  0  0  0  0  0  0
    0.7836  -45.4254    6.0966 H   0  0  0  0  0  0  0  0  0  0  0  0
    1.2706  -46.6583    7.2030 H   0  0  0  0  0  0  0  0  0  0  0  0
   -0.6335  -45.7202    8.2278 H   0  0  0  0  0  0  0  0  0  0  0  0
   -1.2233  -47.2321    7.5032 H   0  0  0  0  0  0  0  0  0  0  0  0
   -2.5086  -46.3928    8.7363 H   0  0  0  0  0  0  0  0  0  0  0  0
   -5.5194  -44.7316    6.9405 C   0  0  0  0  0  0  0  0  0  0  0  0
   -4.2382  -44.7190    6.2966 C   0  0  0  0  0  0  0  0  0  0  0  0
   -4.1958  -44.0682    5.0199 C   0  0  0  0  0  0  0  0  0  0  0  0
   -5.3148  -43.4537    4.4645 C   0  0  0  0  0  0  0  0  0  0  0  0
   -6.5362  -43.4641    5.1196 C   0  0  0  0  0  0  0  0  0  0  0  0
   -6.6470  -44.1085    6.3449 C   0  0  0  0  0  0  0  0  0  0  0  0
   -3.3140  -43.9982    4.4208 H   0  0  0  0  0  0  0  0  0  0  0  0
   -5.2187  -42.9594    3.5063 H   0  0  0  0  0  0  0  0  0  0  0  0
   -7.3891  -42.9712    4.6760 H   0  0  0  0  0  0  0  0  0  0  0  0
   -7.6016  -44.1209    6.8538 H   0  0  0  0  0  0  0  0  0  0  0  0
   -4.7209  -46.4108    9.7995 H   0  0  0  0  0  0  0  0  0  0  0  0
   -6.6527  -45.3704    8.6666 H   0  0  0  0  0  0  0  0  0  0  0  0
  1  2  2  0
  2  3  1  0
  2  4  1  0
  4  5  1  0
  4 12  2  0
  5  6  1  0
  6  7  1  0
  6 11  2  0
  7  8  2  0
  7 21  1  0
  8  9  1  0
  8 22  1  0
  9 10  2  0
  9 23  1  0
 10 11  1  0
 10 24  1  0
 11 12  1  0
 12 13  1  0
 13 25  1  6
 13 26  1  0
 13 14  1  0
 14 15  1  0
 14 27  1  6
 14 28  1  0
 15 16  1  0
 15 29  1  1
 15 30  1  0
 16 17  1  0
 17 20  2  0
 17 33  1  0
 18 19  2  0
 18 32  1  0
 18 43  1  0
 19 20  1  0
 19 42  1  0
 20 31  1  0
 32 33  2  0
 32 37  1  0
 33 34  1  0
 34 35  2  0
 34 38  1  0
 35 36  1  0
 35 39  1  0
 36 37  2  0
 36 40  1  0
 37 41  1  0
M  CHG  1   3  -1
M  END
