46 flip
     RDKit          3D

 45 48  0  0  1  0  0  0  0  0999 V2000
    3.3279  -48.3964    6.5815 O   0  0  0  0  0  0  0  0  0  0  0  0
    2.8326  -49.5431    6.5815 C   0  0  0  0  0  0  0  0  0  0  0  0
    3.4624  -50.6082    6.8108 O   0  0  0  0  0  0  0  0  0  0  0  0
    1.3634  -49.6671    6.3518 C   0  0  0  0  0  0  0  0  0  0  0  0
   -0.5532  -50.8875    6.4096 C   0  0  0  0  0  0  0  0  0  0  0  0
   -1.5216  -51.8881    6.5633 C   0  0  0  0  0  0  0  0  0  0  0  0
   -2.8392  -51.5511    6.2414 C   0  0  0  0  0  0  0  0  0  0  0  0
   -3.1756  -50.2775    5.7887 C   0  0  0  0  0  0  0  0  0  0  0  0
   -2.2112  -49.2813    5.6336 C   0  0  0  0  0  0  0  0  0  0  0  0
   -0.8706  -49.5756    5.9409 C   0  0  0  0  0  0  0  0  0  0  0  0
    0.3491  -48.8138    5.8875 C   0  0  0  0  0  0  0  0  0  0  0  0
    0.4680  -47.3774    5.4158 C   0  0  2  0  0  0  0  0  0  0  0  0
    0.4454  -46.3833    6.5903 C   0  0  2  0  0  0  0  0  0  0  0  0
   -0.9225  -46.2558    7.2821 C   0  0  2  0  0  0  0  0  0  0  0  0
   -1.8547  -45.6765    6.3671 O   0  0  0  0  0  0  0  0  0  0  0  0
   -3.1591  -45.4748    6.7611 C   0  0  0  0  0  0  0  0  0  0  0  0
   -5.2876  -44.4327    6.2142 C   0  0  0  0  0  0  0  0  0  0  0  0
   -3.9589  -44.7252    5.8979 C   0  0  0  0  0  0  0  0  0  0  0  0
   -1.2697  -52.8759    6.9175 H   0  0  0  0  0  0  0  0  0  0  0  0
   -3.6217  -52.2933    6.3407 H   0  0  0  0  0  0  0  0  0  0  0  0
   -4.2074  -50.0514    5.5514 H   0  0  0  0  0  0  0  0  0  0  0  0
   -2.4864  -48.2956    5.2931 H   0  0  0  0  0  0  0  0  0  0  0  0
   -0.3270  -47.1252    4.7120 H   0  0  0  0  0  0  0  0  0  0  0  0
    1.3972  -47.2454    4.8566 H   0  0  0  0  0  0  0  0  0  0  0  0
    0.7541  -45.3972    6.2397 H   0  0  0  0  0  0  0  0  0  0  0  0
    1.1962  -46.6923    7.3187 H   0  0  0  0  0  0  0  0  0  0  0  0
   -0.8272  -45.6094    8.1577 H   0  0  0  0  0  0  0  0  0  0  0  0
   -1.2537  -47.2377    7.6300 H   0  0  0  0  0  0  0  0  0  0  0  0
   -3.5199  -44.3611    4.9809 H   0  0  0  0  0  0  0  0  0  0  0  0
   -3.7154  -45.9589    7.9548 C   0  0  0  0  0  0  0  0  0  0  0  0
   -5.8735  -43.8289    5.5373 H   0  0  0  0  0  0  0  0  0  0  0  0
   -3.1243  -46.5474    8.6372 H   0  0  0  0  0  0  0  0  0  0  0  0
    0.8103  -50.9006    6.6370 N   0  0  0  0  0  0  0  0  0  0  0  0
   -7.2523  -45.5825    9.2314 C   0  0  2  0  0  0  0  0  0  0  0  0
   -5.8270  -46.0875    9.4967 C   0  0  2  0  0  0  0  0  0  0  0  0
   -5.0497  -45.6942    8.2641 C   0  0  0  0  0  0  0  0  0  0  0  0
   -5.8344  -44.9252    7.3995 C   0  0  0  0  0  0  0  0  0  0  0  0
   -7.2152  -44.6985    7.9708 C   0  0  2  0  0  0  0  0  0  0  0  0
   -7.3577  -43.6518    8.2410 H   0  0  0  0  0  0  0  0  0  0  0  0
   -8.0069  -44.9770    7.2746 H   0  0  0  0  0  0  0  0  0  0  0  0
   -7.6521  -45.0463   10.0912 H   0  0  0  0  0  0  0  0  0  0  0  0
   -7.9167  -46.4318    9.0694 H   0  0  0  0  0  0  0  0  0  0  0  0
   -5.8263  -47.1669    9.6604 H   0  0  0  0  0  0  0  0  0  0  0  0
   -5.4193  -45.6078   10.3873 H   0  0  0  0  0  0  0  0  0  0  0  0
    1.4355  -51.6343    6.9552 H   0  0  0  0  0  0  0  0  0  0  0  0
  1  2  2  0
  2  3  1  0
  2  4  1  0
  4 11  2  0
  4 33  1  0
  5  6  1  0
  5 10  2  0
  5 33  1  0
  6  7  2  0
  6 19  1  0
  7  8  1  0
  7 20  1  0
  8  9  2  0
  8 21  1  0
  9 10  1  0
  9 22  1  0
 10 11  1  0
 11 12  1  0
 12 23  1  6
 12 24  1  0
 12 13  1  0
 13 14  1  0
 13 25  1  6
 13 26  1  0
 14 15  1  0
 14 27  1  1
 14 28  1  0
 15 16  1  0
 16 18  2  0
 16 30  1  0
 17 18  1  0
 17 31  1  0
 17 37  2  0
 18 29  1  0
 30 32  1  0
 30 36  2  0
 33 45  1  0
 34 35  1  0
 34 38  1  0
 34 41  1  1
 34 42  1  0
 35 36  1  0
 35 43  1  1
 35 44  1  0
 36 37  1  0
 37 38  1  0
 38 39  1  1
 38 40  1  0
M  CHG  1   3  -1
M  END
