29
     RDKit          3D

 41 43  0  0  1  0  0  0  0  0999 V2000
    3.3740  -48.4203    6.5777 O   0  0  0  0  0  0  0  0  0  0  0  0
    2.8441  -49.5527    6.5784 C   0  0  0  0  0  0  0  0  0  0  0  0
    3.4583  -50.6247    6.8183 O   0  0  0  0  0  0  0  0  0  0  0  0
    1.3823  -49.6459    6.3372 C   0  0  0  0  0  0  0  0  0  0  0  0
   -0.5320  -50.8446    6.3958 C   0  0  0  0  0  0  0  0  0  0  0  0
   -1.4941  -51.8499    6.5555 C   0  0  0  0  0  0  0  0  0  0  0  0
   -2.8132  -51.5194    6.2356 C   0  0  0  0  0  0  0  0  0  0  0  0
   -3.1681  -50.2492    5.7753 C   0  0  0  0  0  0  0  0  0  0  0  0
   -2.2060  -49.2576    5.6016 C   0  0  0  0  0  0  0  0  0  0  0  0
   -0.8587  -49.5389    5.9107 C   0  0  0  0  0  0  0  0  0  0  0  0
    0.3712  -48.7921    5.8336 C   0  0  0  0  0  0  0  0  0  0  0  0
    0.5086  -47.3675    5.3121 C   0  0  2  0  0  0  0  0  0  0  0  0
    0.5208  -46.3334    6.4512 C   0  0  2  0  0  0  0  0  0  0  0  0
   -0.8035  -46.2204    7.2428 C   0  0  2  0  0  0  0  0  0  0  0  0
   -1.8632  -45.7314    6.4211 O   0  0  0  0  0  0  0  0  0  0  0  0
   -3.1665  -45.5547    6.8703 C   0  0  0  0  0  0  0  0  0  0  0  0
   -4.2673  -44.8577    6.2881 C   0  0  0  0  0  0  0  0  0  0  0  0
   -5.5040  -44.8748    6.9624 C   0  0  0  0  0  0  0  0  0  0  0  0
   -5.6649  -45.5363    8.1733 C   0  0  0  0  0  0  0  0  0  0  0  0
   -4.5823  -46.1844    8.7495 C   0  0  0  0  0  0  0  0  0  0  0  0
   -3.3580  -46.1872    8.0979 C   0  0  0  0  0  0  0  0  0  0  0  0
   -1.2248  -52.8266    6.9152 H   0  0  0  0  0  0  0  0  0  0  0  0
   -3.5844  -52.2761    6.3464 H   0  0  0  0  0  0  0  0  0  0  0  0
   -4.2036  -50.0405    5.5465 H   0  0  0  0  0  0  0  0  0  0  0  0
   -2.4874  -48.2736    5.2594 H   0  0  0  0  0  0  0  0  0  0  0  0
   -0.2740  -47.1054    4.5933 H   0  0  0  0  0  0  0  0  0  0  0  0
    1.4364  -47.2822    4.7451 H   0  0  0  0  0  0  0  0  0  0  0  0
    0.7951  -45.3619    6.0467 H   0  0  0  0  0  0  0  0  0  0  0  0
    1.3272  -46.6162    7.1339 H   0  0  0  0  0  0  0  0  0  0  0  0
   -0.6648  -45.5594    8.1028 H   0  0  0  0  0  0  0  0  0  0  0  0
   -1.0324  -47.2188    7.5984 H   0  0  0  0  0  0  0  0  0  0  0  0
   -2.5285  -46.7098    8.5347 H   0  0  0  0  0  0  0  0  0  0  0  0
    0.8211  -50.8580    6.6336 N   0  0  0  0  0  0  0  0  0  0  0  0
    1.4462  -51.5919    6.9608 H   0  0  0  0  0  0  0  0  0  0  0  0
   -4.6963  -46.7001    9.6897 H   0  0  0  0  0  0  0  0  0  0  0  0
   -6.6307  -45.5431    8.6580 H   0  0  0  0  0  0  0  0  0  0  0  0
   -6.3650  -44.3667    6.5511 H   0  0  0  0  0  0  0  0  0  0  0  0
   -5.3701  -43.4212    4.7295 F   0  0  0  0  0  0  0  0  0  0  0  0
   -4.2143  -44.0471    4.9830 C   0  0  1  0  0  0  0  0  0  0  0  0
   -3.2848  -43.0971    5.0297 F   0  0  0  0  0  0  0  0  0  0  0  0
   -3.9992  -44.8465    3.9388 F   0  0  0  0  0  0  0  0  0  0  0  0
  1  2  2  0
  2  3  1  0
  2  4  1  0
  4 11  2  0
  4 33  1  0
  5  6  1  0
  5 10  2  0
  5 33  1  0
  6  7  2  0
  6 22  1  0
  7  8  1  0
  7 23  1  0
  8  9  2  0
  8 24  1  0
  9 10  1  0
  9 25  1  0
 10 11  1  0
 11 12  1  0
 12 26  1  6
 12 27  1  0
 12 13  1  0
 13 14  1  0
 13 28  1  6
 13 29  1  0
 14 15  1  0
 14 30  1  1
 14 31  1  0
 15 16  1  0
 16 17  1  0
 16 21  2  0
 17 18  2  0
 17 39  1  0
 18 19  1  0
 18 37  1  0
 19 20  2  0
 19 36  1  0
 20 21  1  0
 20 35  1  0
 21 32  1  0
 33 34  1  0
 39 38  1  6
 39 40  1  0
 39 41  1  0
M  CHG  1   3  -1
M  END
