44 flip
     RDKit          3D

 44 47  0  0  1  0  0  0  0  0999 V2000
    3.3433  -48.4009    6.5785 O   0  0  0  0  0  0  0  0  0  0  0  0
    2.8412  -49.5436    6.5817 C   0  0  0  0  0  0  0  0  0  0  0  0
    3.4555  -50.6129    6.8344 O   0  0  0  0  0  0  0  0  0  0  0  0
    1.3718  -49.6595    6.3366 C   0  0  0  0  0  0  0  0  0  0  0  0
   -0.5517  -50.8744    6.4052 C   0  0  0  0  0  0  0  0  0  0  0  0
   -1.5168  -51.8761    6.5671 C   0  0  0  0  0  0  0  0  0  0  0  0
   -2.8348  -51.5430    6.2448 C   0  0  0  0  0  0  0  0  0  0  0  0
   -3.1710  -50.2713    5.7869 C   0  0  0  0  0  0  0  0  0  0  0  0
   -2.2071  -49.2743    5.6203 C   0  0  0  0  0  0  0  0  0  0  0  0
   -0.8634  -49.5671    5.9213 C   0  0  0  0  0  0  0  0  0  0  0  0
    0.3624  -48.8110    5.8466 C   0  0  0  0  0  0  0  0  0  0  0  0
    0.4895  -47.3839    5.3396 C   0  0  2  0  0  0  0  0  0  0  0  0
    0.4954  -46.3609    6.4923 C   0  0  2  0  0  0  0  0  0  0  0  0
   -0.8418  -46.2464    7.2489 C   0  0  2  0  0  0  0  0  0  0  0  0
   -1.8552  -45.6464    6.4540 O   0  0  0  0  0  0  0  0  0  0  0  0
   -3.1548  -45.4597    6.9103 C   0  0  0  0  0  0  0  0  0  0  0  0
   -5.8912  -44.8727    7.3805 C   0  0  0  0  0  0  0  0  0  0  0  0
   -5.2596  -44.4495    6.2204 C   0  0  0  0  0  0  0  0  0  0  0  0
   -3.9290  -44.7572    5.9868 C   0  0  0  0  0  0  0  0  0  0  0  0
   -1.2639  -52.8625    6.9257 H   0  0  0  0  0  0  0  0  0  0  0  0
   -3.6172  -52.2864    6.3495 H   0  0  0  0  0  0  0  0  0  0  0  0
   -4.2054  -50.0514    5.5561 H   0  0  0  0  0  0  0  0  0  0  0  0
   -2.4886  -48.2924    5.2724 H   0  0  0  0  0  0  0  0  0  0  0  0
   -0.3011  -47.1341    4.6311 H   0  0  0  0  0  0  0  0  0  0  0  0
    1.4196  -47.2785    4.7726 H   0  0  0  0  0  0  0  0  0  0  0  0
    0.7916  -45.3777    6.1191 H   0  0  0  0  0  0  0  0  0  0  0  0
    1.2730  -46.6610    7.1960 H   0  0  0  0  0  0  0  0  0  0  0  0
   -0.6921  -45.6408    8.1452 H   0  0  0  0  0  0  0  0  0  0  0  0
   -1.1442  -47.2552    7.5299 H   0  0  0  0  0  0  0  0  0  0  0  0
   -3.4703  -44.4436    5.0591 H   0  0  0  0  0  0  0  0  0  0  0  0
   -5.1725  -45.6253    8.3514 C   0  0  0  0  0  0  0  0  0  0  0  0
   -3.7714  -45.8962    8.1544 C   0  0  0  0  0  0  0  0  0  0  0  0
   -3.1121  -46.5908    9.2220 C   0  0  0  0  0  0  0  0  0  0  0  0
   -3.7919  -47.0453   10.3471 C   0  0  0  0  0  0  0  0  0  0  0  0
   -5.1514  -46.8283   10.4866 C   0  0  0  0  0  0  0  0  0  0  0  0
   -5.8368  -46.1137    9.5147 C   0  0  0  0  0  0  0  0  0  0  0  0
   -2.0650  -46.8053    9.2376 H   0  0  0  0  0  0  0  0  0  0  0  0
   -3.2490  -47.5754   11.1119 H   0  0  0  0  0  0  0  0  0  0  0  0
   -5.6728  -47.2028   11.3547 H   0  0  0  0  0  0  0  0  0  0  0  0
   -6.8954  -45.9387    9.6485 H   0  0  0  0  0  0  0  0  0  0  0  0
   -5.8138  -43.8901    5.4820 H   0  0  0  0  0  0  0  0  0  0  0  0
   -7.5588  -44.4550    7.6005 Cl  0  0  0  0  0  0  0  0  0  0  0  0
    0.8117  -50.8906    6.6366 N   0  0  0  0  0  0  0  0  0  0  0  0
    1.4341  -51.6243    6.9678 H   0  0  0  0  0  0  0  0  0  0  0  0
  1  2  2  0
  2  3  1  0
  2  4  1  0
  4 11  2  0
  4 43  1  0
  5  6  1  0
  5 10  2  0
  5 43  1  0
  6  7  2  0
  6 20  1  0
  7  8  1  0
  7 21  1  0
  8  9  2  0
  8 22  1  0
  9 10  1  0
  9 23  1  0
 10 11  1  0
 11 12  1  0
 12 24  1  6
 12 25  1  0
 12 13  1  0
 13 14  1  0
 13 26  1  6
 13 27  1  0
 14 15  1  0
 14 28  1  1
 14 29  1  0
 15 16  1  0
 16 19  2  0
 16 32  1  0
 17 18  2  0
 17 31  1  0
 17 42  1  0
 18 19  1  0
 18 41  1  0
 19 30  1  0
 31 32  2  0
 31 36  1  0
 32 33  1  0
 33 34  2  0
 33 37  1  0
 34 35  1  0
 34 38  1  0
 35 36  2  0
 35 39  1  0
 36 40  1  0
 43 44  1  0
M  CHG  1   3  -1
M  END
