28 flip
     RDKit          3D

 41 43  0  0  1  0  0  0  0  0999 V2000
    3.3535  -48.3963    6.5804 O   0  0  0  0  0  0  0  0  0  0  0  0
    2.8487  -49.5384    6.5799 C   0  0  0  0  0  0  0  0  0  0  0  0
    3.4705  -50.6073    6.8217 O   0  0  0  0  0  0  0  0  0  0  0  0
    1.3802  -49.6556    6.3394 C   0  0  0  0  0  0  0  0  0  0  0  0
   -0.5406  -50.8699    6.4089 C   0  0  0  0  0  0  0  0  0  0  0  0
   -1.5086  -51.8688    6.5691 C   0  0  0  0  0  0  0  0  0  0  0  0
   -2.8258  -51.5338    6.2463 C   0  0  0  0  0  0  0  0  0  0  0  0
   -3.1661  -50.2633    5.7914 C   0  0  0  0  0  0  0  0  0  0  0  0
   -2.1988  -49.2658    5.6273 C   0  0  0  0  0  0  0  0  0  0  0  0
   -0.8552  -49.5618    5.9277 C   0  0  0  0  0  0  0  0  0  0  0  0
    0.3691  -48.8058    5.8534 C   0  0  0  0  0  0  0  0  0  0  0  0
    0.4963  -47.3818    5.3425 C   0  0  2  0  0  0  0  0  0  0  0  0
    0.5062  -46.3460    6.4843 C   0  0  2  0  0  0  0  0  0  0  0  0
   -0.8348  -46.2190    7.2362 C   0  0  2  0  0  0  0  0  0  0  0  0
   -1.8683  -45.7554    6.3705 O   0  0  0  0  0  0  0  0  0  0  0  0
   -3.1597  -45.5197    6.8246 C   0  0  0  0  0  0  0  0  0  0  0  0
   -3.7759  -45.9747    8.0231 C   0  0  0  0  0  0  0  0  0  0  0  0
   -5.1088  -45.6282    8.2834 C   0  0  0  0  0  0  0  0  0  0  0  0
   -5.8435  -44.8603    7.3849 C   0  0  0  0  0  0  0  0  0  0  0  0
   -5.2494  -44.4228    6.2068 C   0  0  0  0  0  0  0  0  0  0  0  0
   -3.9223  -44.7522    5.9387 C   0  0  0  0  0  0  0  0  0  0  0  0
   -1.2542  -52.8549    6.9262 H   0  0  0  0  0  0  0  0  0  0  0  0
   -3.6068  -52.2770    6.3477 H   0  0  0  0  0  0  0  0  0  0  0  0
   -4.1972  -50.0380    5.5569 H   0  0  0  0  0  0  0  0  0  0  0  0
   -2.4754  -48.2833    5.2840 H   0  0  0  0  0  0  0  0  0  0  0  0
   -0.2976  -47.1376    4.6354 H   0  0  0  0  0  0  0  0  0  0  0  0
    1.4249  -47.2851    4.7735 H   0  0  0  0  0  0  0  0  0  0  0  0
    0.8012  -45.3697    6.0928 H   0  0  0  0  0  0  0  0  0  0  0  0
    1.2821  -46.6434    7.1935 H   0  0  0  0  0  0  0  0  0  0  0  0
   -0.7251  -45.5288    8.0748 H   0  0  0  0  0  0  0  0  0  0  0  0
   -1.0668  -47.2103    7.6187 H   0  0  0  0  0  0  0  0  0  0  0  0
   -3.4637  -44.4151    5.0208 H   0  0  0  0  0  0  0  0  0  0  0  0
    0.8232  -50.8849    6.6396 N   0  0  0  0  0  0  0  0  0  0  0  0
    1.4527  -51.6114    6.9682 H   0  0  0  0  0  0  0  0  0  0  0  0
   -5.8139  -43.8337    5.5004 H   0  0  0  0  0  0  0  0  0  0  0  0
   -6.8731  -44.6146    7.5999 H   0  0  0  0  0  0  0  0  0  0  0  0
   -5.5893  -45.9691    9.1871 H   0  0  0  0  0  0  0  0  0  0  0  0
   -3.1020  -46.8633    9.0638 C   0  0  1  0  0  0  0  0  0  0  0  0
   -3.7624  -47.0670    9.9117 H   0  0  0  0  0  0  0  0  0  0  0  0
   -2.8266  -47.8235    8.6230 H   0  0  0  0  0  0  0  0  0  0  0  0
   -2.2117  -46.3855    9.4719 H   0  0  0  0  0  0  0  0  0  0  0  0
  1  2  2  0
  2  3  1  0
  2  4  1  0
  4 11  2  0
  4 33  1  0
  5  6  1  0
  5 10  2  0
  5 33  1  0
  6  7  2  0
  6 22  1  0
  7  8  1  0
  7 23  1  0
  8  9  2  0
  8 24  1  0
  9 10  1  0
  9 25  1  0
 10 11  1  0
 11 12  1  0
 12 26  1  6
 12 27  1  0
 12 13  1  0
 13 14  1  0
 13 28  1  6
 13 29  1  0
 14 15  1  0
 14 30  1  1
 14 31  1  0
 15 16  1  0
 16 17  1  0
 16 21  2  0
 17 18  2  0
 17 38  1  0
 18 19  1  0
 18 37  1  0
 19 20  2  0
 19 36  1  0
 20 21  1  0
 20 35  1  0
 21 32  1  0
 33 34  1  0
 38 39  1  1
 38 40  1  0
 38 41  1  0
M  CHG  1   3  -1
M  END
