45 flip
     RDKit          3D

 48 51  0  0  1  0  0  0  0  0999 V2000
    3.3312  -48.3960    6.5762 O   0  0  0  0  0  0  0  0  0  0  0  0
    2.8363  -49.5428    6.5799 C   0  0  0  0  0  0  0  0  0  0  0  0
    3.4672  -50.6072    6.8103 O   0  0  0  0  0  0  0  0  0  0  0  0
    1.3663  -49.6680    6.3511 C   0  0  0  0  0  0  0  0  0  0  0  0
   -0.5522  -50.8875    6.4088 C   0  0  0  0  0  0  0  0  0  0  0  0
   -1.5214  -51.8872    6.5634 C   0  0  0  0  0  0  0  0  0  0  0  0
   -2.8393  -51.5498    6.2413 C   0  0  0  0  0  0  0  0  0  0  0  0
   -3.1755  -50.2772    5.7868 C   0  0  0  0  0  0  0  0  0  0  0  0
   -2.2102  -49.2818    5.6303 C   0  0  0  0  0  0  0  0  0  0  0  0
   -0.8690  -49.5766    5.9394 C   0  0  0  0  0  0  0  0  0  0  0  0
    0.3507  -48.8145    5.8879 C   0  0  0  0  0  0  0  0  0  0  0  0
    0.4660  -47.3763    5.4227 C   0  0  2  0  0  0  0  0  0  0  0  0
    0.4376  -46.3888    6.6039 C   0  0  2  0  0  0  0  0  0  0  0  0
   -0.9273  -46.2834    7.3091 C   0  0  2  0  0  0  0  0  0  0  0  0
   -1.8620  -45.7312    6.3822 O   0  0  0  0  0  0  0  0  0  0  0  0
   -3.1708  -45.4938    6.7580 C   0  0  0  0  0  0  0  0  0  0  0  0
   -5.8040  -45.1599    7.6030 C   0  0  0  0  0  0  0  0  0  0  0  0
   -5.3997  -44.6243    6.3858 C   0  0  0  0  0  0  0  0  0  0  0  0
   -4.0867  -44.7944    5.9614 C   0  0  0  0  0  0  0  0  0  0  0  0
   -1.2716  -52.8751    6.9200 H   0  0  0  0  0  0  0  0  0  0  0  0
   -3.6237  -52.2903    6.3429 H   0  0  0  0  0  0  0  0  0  0  0  0
   -4.2071  -50.0516    5.5514 H   0  0  0  0  0  0  0  0  0  0  0  0
   -2.4869  -48.2960    5.2900 H   0  0  0  0  0  0  0  0  0  0  0  0
   -0.3262  -47.1221    4.7168 H   0  0  0  0  0  0  0  0  0  0  0  0
    1.3973  -47.2391    4.8665 H   0  0  0  0  0  0  0  0  0  0  0  0
    0.7241  -45.3962    6.2509 H   0  0  0  0  0  0  0  0  0  0  0  0
    1.2043  -46.6853    7.3191 H   0  0  0  0  0  0  0  0  0  0  0  0
   -0.8356  -45.6242    8.1755 H   0  0  0  0  0  0  0  0  0  0  0  0
   -1.2456  -47.2653    7.6698 H   0  0  0  0  0  0  0  0  0  0  0  0
   -3.7924  -44.3718    5.0135 H   0  0  0  0  0  0  0  0  0  0  0  0
   -4.9127  -45.8570    8.4227 C   0  0  0  0  0  0  0  0  0  0  0  0
   -3.5728  -46.0162    7.9998 C   0  0  0  0  0  0  0  0  0  0  0  0
   -2.5682  -46.8124    8.8443 C   0  0  2  0  0  0  0  0  0  0  0  0
   -3.0175  -47.0323   10.2983 C   0  0  2  0  0  0  0  0  0  0  0  0
   -4.4786  -47.4896   10.3437 C   0  0  2  0  0  0  0  0  0  0  0  0
   -5.3918  -46.3925    9.7711 C   0  0  2  0  0  0  0  0  0  0  0  0
   -6.1005  -44.0770    5.7749 H   0  0  0  0  0  0  0  0  0  0  0  0
   -6.8242  -45.0171    7.9261 H   0  0  0  0  0  0  0  0  0  0  0  0
   -1.5961  -46.3145    8.8296 H   0  0  0  0  0  0  0  0  0  0  0  0
   -2.4192  -47.7772    8.3567 H   0  0  0  0  0  0  0  0  0  0  0  0
   -2.9028  -46.1058   10.8637 H   0  0  0  0  0  0  0  0  0  0  0  0
   -2.3703  -47.7666   10.7773 H   0  0  0  0  0  0  0  0  0  0  0  0
   -4.7715  -47.7238   11.3682 H   0  0  0  0  0  0  0  0  0  0  0  0
   -4.5960  -48.4117    9.7710 H   0  0  0  0  0  0  0  0  0  0  0  0
   -6.4098  -46.7723    9.6826 H   0  0  0  0  0  0  0  0  0  0  0  0
   -5.4315  -45.5576   10.4715 H   0  0  0  0  0  0  0  0  0  0  0  0
    0.8119  -50.9018    6.6374 N   0  0  0  0  0  0  0  0  0  0  0  0
    1.4372  -51.6355    6.9576 H   0  0  0  0  0  0  0  0  0  0  0  0
  1  2  2  0
  2  3  1  0
  2  4  1  0
  4 11  2  0
  4 47  1  0
  5  6  1  0
  5 10  2  0
  5 47  1  0
  6  7  2  0
  6 20  1  0
  7  8  1  0
  7 21  1  0
  8  9  2  0
  8 22  1  0
  9 10  1  0
  9 23  1  0
 10 11  1  0
 11 12  1  0
 12 24  1  6
 12 25  1  0
 12 13  1  0
 13 14  1  0
 13 26  1  6
 13 27  1  0
 14 15  1  0
 14 28  1  1
 14 29  1  0
 15 16  1  0
 16 19  2  0
 16 32  1  0
 17 18  2  0
 17 31  1  0
 17 38  1  0
 18 19  1  0
 18 37  1  0
 19 30  1  0
 31 32  2  0
 31 36  1  0
 32 33  1  0
 33 34  1  0
 33 39  1  1
 33 40  1  0
 34 35  1  0
 34 41  1  1
 34 42  1  0
 35 36  1  0
 35 43  1  1
 35 44  1  0
 36 45  1  6
 36 46  1  0
 47 48  1  0
M  CHG  1   3  -1
M  END
