44
     RDKit          3D

 44 47  0  0  1  0  0  0  0  0999 V2000
    3.3433  -48.4009    6.5785 O   0  0  0  0  0  0  0  0  0  0  0  0
    2.8412  -49.5436    6.5817 C   0  0  0  0  0  0  0  0  0  0  0  0
    3.4555  -50.6129    6.8344 O   0  0  0  0  0  0  0  0  0  0  0  0
    1.3718  -49.6595    6.3366 C   0  0  0  0  0  0  0  0  0  0  0  0
   -0.5517  -50.8744    6.4052 C   0  0  0  0  0  0  0  0  0  0  0  0
   -1.5168  -51.8761    6.5671 C   0  0  0  0  0  0  0  0  0  0  0  0
   -2.8348  -51.5430    6.2448 C   0  0  0  0  0  0  0  0  0  0  0  0
   -3.1710  -50.2713    5.7869 C   0  0  0  0  0  0  0  0  0  0  0  0
   -2.2071  -49.2743    5.6203 C   0  0  0  0  0  0  0  0  0  0  0  0
   -0.8634  -49.5671    5.9213 C   0  0  0  0  0  0  0  0  0  0  0  0
    0.3624  -48.8110    5.8466 C   0  0  0  0  0  0  0  0  0  0  0  0
    0.4895  -47.3839    5.3396 C   0  0  2  0  0  0  0  0  0  0  0  0
    0.4954  -46.3609    6.4923 C   0  0  2  0  0  0  0  0  0  0  0  0
   -0.8418  -46.2464    7.2489 C   0  0  2  0  0  0  0  0  0  0  0  0
   -1.8552  -45.6464    6.4540 O   0  0  0  0  0  0  0  0  0  0  0  0
   -3.1548  -45.4597    6.9103 C   0  0  0  0  0  0  0  0  0  0  0  0
   -5.6500  -45.3347    8.2563 C   0  0  0  0  0  0  0  0  0  0  0  0
   -4.5969  -46.0750    8.7727 C   0  0  0  0  0  0  0  0  0  0  0  0
   -3.3744  -46.1152    8.1218 C   0  0  0  0  0  0  0  0  0  0  0  0
   -1.2639  -52.8625    6.9257 H   0  0  0  0  0  0  0  0  0  0  0  0
   -3.6172  -52.2864    6.3495 H   0  0  0  0  0  0  0  0  0  0  0  0
   -4.2054  -50.0514    5.5561 H   0  0  0  0  0  0  0  0  0  0  0  0
   -2.4886  -48.2924    5.2724 H   0  0  0  0  0  0  0  0  0  0  0  0
   -0.3011  -47.1341    4.6311 H   0  0  0  0  0  0  0  0  0  0  0  0
    1.4196  -47.2785    4.7726 H   0  0  0  0  0  0  0  0  0  0  0  0
    0.7916  -45.3777    6.1191 H   0  0  0  0  0  0  0  0  0  0  0  0
    1.2730  -46.6610    7.1960 H   0  0  0  0  0  0  0  0  0  0  0  0
   -0.6921  -45.6408    8.1452 H   0  0  0  0  0  0  0  0  0  0  0  0
   -1.1442  -47.2552    7.5299 H   0  0  0  0  0  0  0  0  0  0  0  0
   -2.5601  -46.6730    8.5634 H   0  0  0  0  0  0  0  0  0  0  0  0
   -5.4866  -44.6108    7.0419 C   0  0  0  0  0  0  0  0  0  0  0  0
   -4.2436  -44.6961    6.3188 C   0  0  0  0  0  0  0  0  0  0  0  0
   -4.1990  -43.9985    5.0665 C   0  0  0  0  0  0  0  0  0  0  0  0
   -5.2584  -43.2232    4.6071 C   0  0  0  0  0  0  0  0  0  0  0  0
   -6.4208  -43.1051    5.3487 C   0  0  0  0  0  0  0  0  0  0  0  0
   -6.5480  -43.8000    6.5428 C   0  0  0  0  0  0  0  0  0  0  0  0
   -3.3645  -44.0236    4.3987 H   0  0  0  0  0  0  0  0  0  0  0  0
   -5.1646  -42.7081    3.6657 H   0  0  0  0  0  0  0  0  0  0  0  0
   -7.2293  -42.4847    4.9922 H   0  0  0  0  0  0  0  0  0  0  0  0
   -7.4700  -43.7096    7.1006 H   0  0  0  0  0  0  0  0  0  0  0  0
   -4.7233  -46.6113    9.7009 H   0  0  0  0  0  0  0  0  0  0  0  0
   -7.1473  -45.3271    9.1292 Cl  0  0  0  0  0  0  0  0  0  0  0  0
    0.8117  -50.8906    6.6366 N   0  0  0  0  0  0  0  0  0  0  0  0
    1.4341  -51.6243    6.9678 H   0  0  0  0  0  0  0  0  0  0  0  0
  1  2  2  0
  2  3  1  0
  2  4  1  0
  4 11  2  0
  4 43  1  0
  5  6  1  0
  5 10  2  0
  5 43  1  0
  6  7  2  0
  6 20  1  0
  7  8  1  0
  7 21  1  0
  8  9  2  0
  8 22  1  0
  9 10  1  0
  9 23  1  0
 10 11  1  0
 11 12  1  0
 12 24  1  6
 12 25  1  0
 12 13  1  0
 13 14  1  0
 13 26  1  6
 13 27  1  0
 14 15  1  0
 14 28  1  1
 14 29  1  0
 15 16  1  0
 16 19  2  0
 16 32  1  0
 17 18  2  0
 17 31  1  0
 17 42  1  0
 18 19  1  0
 18 41  1  0
 19 30  1  0
 31 32  2  0
 31 36  1  0
 32 33  1  0
 33 34  2  0
 33 37  1  0
 34 35  1  0
 34 38  1  0
 35 36  2  0
 35 39  1  0
 36 40  1  0
 43 44  1  0
M  CHG  1   3  -1
M  END
