54 flip
     RDKit          3D

 44 47  0  0  1  0  0  0  0  0999 V2000
    3.3478  -48.4173    6.5720 O   0  0  0  0  0  0  0  0  0  0  0  0
    2.8388  -49.5557    6.5848 C   0  0  0  0  0  0  0  0  0  0  0  0
    3.4483  -50.6256    6.8416 O   0  0  0  0  0  0  0  0  0  0  0  0
    1.3686  -49.6643    6.3411 C   0  0  0  0  0  0  0  0  0  0  0  0
   -0.5625  -50.8698    6.4071 C   0  0  0  0  0  0  0  0  0  0  0  0
   -1.5354  -51.8642    6.5694 C   0  0  0  0  0  0  0  0  0  0  0  0
   -2.8499  -51.5261    6.2479 C   0  0  0  0  0  0  0  0  0  0  0  0
   -3.1772  -50.2531    5.7893 C   0  0  0  0  0  0  0  0  0  0  0  0
   -2.2084  -49.2604    5.6205 C   0  0  0  0  0  0  0  0  0  0  0  0
   -0.8667  -49.5602    5.9220 C   0  0  0  0  0  0  0  0  0  0  0  0
    0.3637  -48.8113    5.8496 C   0  0  0  0  0  0  0  0  0  0  0  0
    0.4941  -47.3829    5.3462 C   0  0  2  0  0  0  0  0  0  0  0  0
    0.4921  -46.3634    6.5011 C   0  0  2  0  0  0  0  0  0  0  0  0
   -0.8482  -46.2585    7.2540 C   0  0  2  0  0  0  0  0  0  0  0  0
   -1.8570  -45.6667    6.4484 O   0  0  0  0  0  0  0  0  0  0  0  0
   -3.1557  -45.4679    6.9012 C   0  0  0  0  0  0  0  0  0  0  0  0
   -5.8809  -44.8733    7.3629 C   0  0  0  0  0  0  0  0  0  0  0  0
   -5.2547  -44.4460    6.2019 C   0  0  0  0  0  0  0  0  0  0  0  0
   -3.9227  -44.7553    5.9769 C   0  0  0  0  0  0  0  0  0  0  0  0
   -1.2986  -52.8520    6.9308 H   0  0  0  0  0  0  0  0  0  0  0  0
   -4.0966  -52.7140    6.4180 Cl  0  0  0  0  0  0  0  0  0  0  0  0
   -4.2139  -50.0339    5.5648 H   0  0  0  0  0  0  0  0  0  0  0  0
   -2.4870  -48.2760    5.2766 H   0  0  0  0  0  0  0  0  0  0  0  0
   -0.2946  -47.1322    4.6360 H   0  0  0  0  0  0  0  0  0  0  0  0
    1.4262  -47.2753    4.7827 H   0  0  0  0  0  0  0  0  0  0  0  0
    0.7813  -45.3778    6.1309 H   0  0  0  0  0  0  0  0  0  0  0  0
    1.2712  -46.6616    7.2034 H   0  0  0  0  0  0  0  0  0  0  0  0
   -0.7092  -45.6540    8.1532 H   0  0  0  0  0  0  0  0  0  0  0  0
   -1.1456  -47.2703    7.5314 H   0  0  0  0  0  0  0  0  0  0  0  0
   -3.4592  -44.4375    5.0537 H   0  0  0  0  0  0  0  0  0  0  0  0
   -5.1729  -45.6141    8.3340 C   0  0  0  0  0  0  0  0  0  0  0  0
   -3.7782  -45.9032    8.1426 C   0  0  0  0  0  0  0  0  0  0  0  0
   -3.1393  -46.6124    9.2120 C   0  0  0  0  0  0  0  0  0  0  0  0
   -3.8363  -47.0455   10.3373 C   0  0  0  0  0  0  0  0  0  0  0  0
   -5.1921  -46.7893   10.4732 C   0  0  0  0  0  0  0  0  0  0  0  0
   -5.8593  -46.0677    9.4911 C   0  0  0  0  0  0  0  0  0  0  0  0
   -2.0971  -46.8541    9.2283 H   0  0  0  0  0  0  0  0  0  0  0  0
   -3.3088  -47.5881   11.1043 H   0  0  0  0  0  0  0  0  0  0  0  0
   -5.7217  -47.1440   11.3453 H   0  0  0  0  0  0  0  0  0  0  0  0
   -6.9144  -45.8564    9.6067 H   0  0  0  0  0  0  0  0  0  0  0  0
   -5.8060  -43.8861    5.4625 H   0  0  0  0  0  0  0  0  0  0  0  0
   -6.9217  -44.6452    7.5326 H   0  0  0  0  0  0  0  0  0  0  0  0
    0.8015  -50.8924    6.6395 N   0  0  0  0  0  0  0  0  0  0  0  0
    1.4200  -51.6277    6.9741 H   0  0  0  0  0  0  0  0  0  0  0  0
  1  2  2  0
  2  3  1  0
  2  4  1  0
  4 11  2  0
  4 43  1  0
  5  6  1  0
  5 10  2  0
  5 43  1  0
  6  7  2  0
  6 20  1  0
  7  8  1  0
  7 21  1  0
  8  9  2  0
  8 22  1  0
  9 10  1  0
  9 23  1  0
 10 11  1  0
 11 12  1  0
 12 24  1  6
 12 25  1  0
 12 13  1  0
 13 14  1  0
 13 26  1  6
 13 27  1  0
 14 15  1  0
 14 28  1  1
 14 29  1  0
 15 16  1  0
 16 19  2  0
 16 32  1  0
 17 18  2  0
 17 31  1  0
 17 42  1  0
 18 19  1  0
 18 41  1  0
 19 30  1  0
 31 32  2  0
 31 36  1  0
 32 33  1  0
 33 34  2  0
 33 37  1  0
 34 35  1  0
 34 38  1  0
 35 36  2  0
 35 39  1  0
 36 40  1  0
 43 44  1  0
M  CHG  1   3  -1
M  END
