28
     RDKit          3D

 41 43  0  0  1  0  0  0  0  0999 V2000
    3.3535  -48.3963    6.5804 O   0  0  0  0  0  0  0  0  0  0  0  0
    2.8487  -49.5384    6.5799 C   0  0  0  0  0  0  0  0  0  0  0  0
    3.4705  -50.6073    6.8217 O   0  0  0  0  0  0  0  0  0  0  0  0
    1.3802  -49.6556    6.3394 C   0  0  0  0  0  0  0  0  0  0  0  0
   -0.5406  -50.8699    6.4089 C   0  0  0  0  0  0  0  0  0  0  0  0
   -1.5086  -51.8688    6.5691 C   0  0  0  0  0  0  0  0  0  0  0  0
   -2.8258  -51.5338    6.2463 C   0  0  0  0  0  0  0  0  0  0  0  0
   -3.1661  -50.2633    5.7914 C   0  0  0  0  0  0  0  0  0  0  0  0
   -2.1988  -49.2658    5.6273 C   0  0  0  0  0  0  0  0  0  0  0  0
   -0.8552  -49.5618    5.9277 C   0  0  0  0  0  0  0  0  0  0  0  0
    0.3691  -48.8058    5.8534 C   0  0  0  0  0  0  0  0  0  0  0  0
    0.4963  -47.3818    5.3425 C   0  0  2  0  0  0  0  0  0  0  0  0
    0.5062  -46.3460    6.4843 C   0  0  2  0  0  0  0  0  0  0  0  0
   -0.8348  -46.2190    7.2362 C   0  0  2  0  0  0  0  0  0  0  0  0
   -1.8683  -45.7554    6.3705 O   0  0  0  0  0  0  0  0  0  0  0  0
   -3.1597  -45.5197    6.8246 C   0  0  0  0  0  0  0  0  0  0  0  0
   -4.1936  -44.7634    6.2062 C   0  0  0  0  0  0  0  0  0  0  0  0
   -5.4324  -44.6405    6.8501 C   0  0  0  0  0  0  0  0  0  0  0  0
   -5.6640  -45.2320    8.0883 C   0  0  0  0  0  0  0  0  0  0  0  0
   -4.6532  -45.9625    8.7021 C   0  0  0  0  0  0  0  0  0  0  0  0
   -3.4191  -46.1006    8.0698 C   0  0  0  0  0  0  0  0  0  0  0  0
   -1.2542  -52.8549    6.9262 H   0  0  0  0  0  0  0  0  0  0  0  0
   -3.6068  -52.2770    6.3477 H   0  0  0  0  0  0  0  0  0  0  0  0
   -4.1972  -50.0380    5.5569 H   0  0  0  0  0  0  0  0  0  0  0  0
   -2.4754  -48.2833    5.2840 H   0  0  0  0  0  0  0  0  0  0  0  0
   -0.2976  -47.1376    4.6354 H   0  0  0  0  0  0  0  0  0  0  0  0
    1.4249  -47.2851    4.7735 H   0  0  0  0  0  0  0  0  0  0  0  0
    0.8012  -45.3697    6.0928 H   0  0  0  0  0  0  0  0  0  0  0  0
    1.2821  -46.6434    7.1935 H   0  0  0  0  0  0  0  0  0  0  0  0
   -0.7251  -45.5288    8.0748 H   0  0  0  0  0  0  0  0  0  0  0  0
   -1.0668  -47.2103    7.6187 H   0  0  0  0  0  0  0  0  0  0  0  0
   -2.6334  -46.6648    8.5502 H   0  0  0  0  0  0  0  0  0  0  0  0
    0.8232  -50.8849    6.6396 N   0  0  0  0  0  0  0  0  0  0  0  0
    1.4527  -51.6114    6.9682 H   0  0  0  0  0  0  0  0  0  0  0  0
   -4.8210  -46.4178    9.6661 H   0  0  0  0  0  0  0  0  0  0  0  0
   -6.6225  -45.1148    8.5724 H   0  0  0  0  0  0  0  0  0  0  0  0
   -6.2242  -44.0673    6.3938 H   0  0  0  0  0  0  0  0  0  0  0  0
   -4.0547  -44.0232    4.8797 C   0  0  1  0  0  0  0  0  0  0  0  0
   -4.9870  -43.5288    4.5918 H   0  0  0  0  0  0  0  0  0  0  0  0
   -3.2831  -43.2541    4.9524 H   0  0  0  0  0  0  0  0  0  0  0  0
   -3.8048  -44.7092    4.0707 H   0  0  0  0  0  0  0  0  0  0  0  0
  1  2  2  0
  2  3  1  0
  2  4  1  0
  4 11  2  0
  4 33  1  0
  5  6  1  0
  5 10  2  0
  5 33  1  0
  6  7  2  0
  6 22  1  0
  7  8  1  0
  7 23  1  0
  8  9  2  0
  8 24  1  0
  9 10  1  0
  9 25  1  0
 10 11  1  0
 11 12  1  0
 12 26  1  6
 12 27  1  0
 12 13  1  0
 13 14  1  0
 13 28  1  6
 13 29  1  0
 14 15  1  0
 14 30  1  1
 14 31  1  0
 15 16  1  0
 16 17  1  0
 16 21  2  0
 17 18  2  0
 17 38  1  0
 18 19  1  0
 18 37  1  0
 19 20  2  0
 19 36  1  0
 20 21  1  0
 20 35  1  0
 21 32  1  0
 33 34  1  0
 38 39  1  6
 38 40  1  0
 38 41  1  0
M  CHG  1   3  -1
M  END
