21083
     RDKit          3D

 51 54  0  0  1  0  0  0  0  0999 V2000
    6.1831    2.1361   21.3205 C   0  0  1  0  0  0  0  0  0  0  0  0
    6.4375    3.5773   20.8187 C   0  0  1  0  0  0  0  0  0  0  0  0
    6.2337    3.6193   19.2862 C   0  0  0  0  0  0  0  0  0  0  0  0
    5.1069    3.8798   18.8592 O   0  0  0  0  0  0  0  0  0  0  0  0
    7.2705    3.3667   18.4474 N   0  0  0  0  0  0  0  0  0  0  0  0
    7.1369    3.4327   16.9847 C   0  0  1  0  0  0  0  0  0  0  0  0
    7.5463    2.0800   16.3793 C   0  0  1  0  0  0  0  0  0  0  0  0
    8.8900    1.8006   16.7466 O   0  0  0  0  0  0  0  0  0  0  0  0
    9.0096    1.6610   18.1550 C   0  0  1  0  0  0  0  0  0  0  0  0
    8.6381    2.9899   18.8305 C   0  0  1  0  0  0  0  0  0  0  0  0
    5.5226    4.5005   21.5098 N   0  0  0  0  0  0  0  0  0  0  0  0
    4.1849    4.1158   21.9593 C   0  0  1  0  0  0  0  0  0  0  0  0
    3.4839    5.4498   22.2556 C   0  0  1  0  0  0  0  0  0  0  0  0
    4.6435    6.3803   22.6023 C   0  0  2  0  0  0  0  0  0  0  0  0
    4.3943    7.7689   22.2663 N   0  0  0  0  0  0  0  0  0  0  0  0
    4.4097    8.9810   23.4112 S   0  0  2  0  0  0  0  0  0  0  0  0
    3.5444    8.5784   24.4895 O   0  0  0  0  0  0  0  0  0  0  0  0
    4.1582   10.2115   22.7106 O   0  0  0  0  0  0  0  0  0  0  0  0
    6.0849    8.9945   23.9930 C   0  0  0  0  0  0  0  0  0  0  0  0
    7.1177    9.6658   23.3262 C   0  0  0  0  0  0  0  0  0  0  0  0
    8.3575    9.4911   23.9615 C   0  0  0  0  0  0  0  0  0  0  0  0
    8.2701    8.6989   25.1175 C   0  0  0  0  0  0  0  0  0  0  0  0
    9.4254    8.3244   25.9407 C   0  0  0  0  0  0  0  0  0  0  0  0
    9.3395    7.6013   27.1415 N   0  0  0  0  0  0  0  0  0  0  0  0
   10.6002    7.3095   27.6861 N   0  0  0  0  0  0  0  0  0  0  0  0
   11.6469    7.8019   26.8973 C   0  0  0  0  0  0  0  0  0  0  0  0
   13.3134    7.5849   27.2523 Cl  0  0  0  0  0  0  0  0  0  0  0  0
   11.0861    8.6656   25.4831 S   0  0  0  0  0  0  0  0  0  0  0  0
    6.6322    8.1488   25.4268 S   0  0  0  0  0  0  0  0  0  0  0  0
    5.7936    5.7792   21.8127 C   0  0  0  0  0  0  0  0  0  0  0  0
    6.8307    6.3914   21.5545 O   0  0  0  0  0  0  0  0  0  0  0  0
    5.1988    1.7704   21.0252 H   0  0  0  0  0  0  0  0  0  0  0  0
    6.9144    1.4302   20.9294 H   0  0  0  0  0  0  0  0  0  0  0  0
    6.2466    2.0818   22.4077 H   0  0  0  0  0  0  0  0  0  0  0  0
    7.4563    3.8814   21.0584 H   0  0  0  0  0  0  0  0  0  0  0  0
    6.1247    3.6764   16.6578 H   0  0  0  0  0  0  0  0  0  0  0  0
    7.7774    4.2241   16.5928 H   0  0  0  0  0  0  0  0  0  0  0  0
    6.8840    1.2825   16.7212 H   0  0  0  0  0  0  0  0  0  0  0  0
    7.4730    2.1105   15.2914 H   0  0  0  0  0  0  0  0  0  0  0  0
    8.3720    0.8471   18.5016 H   0  0  0  0  0  0  0  0  0  0  0  0
   10.0362    1.3859   18.3974 H   0  0  0  0  0  0  0  0  0  0  0  0
    9.3259    3.7712   18.5018 H   0  0  0  0  0  0  0  0  0  0  0  0
    8.7936    2.8928   19.9023 H   0  0  0  0  0  0  0  0  0  0  0  0
    3.6398    3.5313   21.2163 H   0  0  0  0  0  0  0  0  0  0  0  0
    4.2697    3.5141   22.8648 H   0  0  0  0  0  0  0  0  0  0  0  0
    2.9584    5.7989   21.3648 H   0  0  0  0  0  0  0  0  0  0  0  0
    2.7525    5.3623   23.0598 H   0  0  0  0  0  0  0  0  0  0  0  0
    4.8505    6.2924   23.6708 H   0  0  0  0  0  0  0  0  0  0  0  0
    4.9581    8.1136   21.4919 H   0  0  0  0  0  0  0  0  0  0  0  0
    6.9821   10.2429   22.4240 H   0  0  0  0  0  0  0  0  0  0  0  0
    9.2669    9.9281   23.5740 H   0  0  0  0  0  0  0  0  0  0  0  0
  1  2  1  0
  1 32  1  1
  1 33  1  0
  1 34  1  0
  2  3  1  0
  2 11  1  0
  2 35  1  6
  3  4  2  0
  3  5  1  0
  5 10  1  0
  5  6  1  0
  6  7  1  0
  6 36  1  1
  6 37  1  0
  7  8  1  0
  7 38  1  1
  7 39  1  0
  8  9  1  0
  9 10  1  0
  9 40  1  1
  9 41  1  0
 10 42  1  6
 10 43  1  0
 11 30  1  0
 11 12  1  0
 12 13  1  0
 12 44  1  6
 12 45  1  0
 13 14  1  0
 13 46  1  6
 13 47  1  0
 14 15  1  0
 14 30  1  0
 14 48  1  1
 16 15  1  6
 15 49  1  0
 16 17  2  0
 16 18  2  0
 16 19  1  0
 19 29  1  0
 19 20  2  0
 20 21  1  0
 20 50  1  0
 21 22  2  0
 21 51  1  0
 22 23  1  0
 22 29  1  0
 23 28  1  0
 23 24  2  0
 24 25  1  0
 25 26  2  0
 26 27  1  0
 26 28  1  0
 30 31  2  0
M  END
