27chargR
     RDKit          3D

 72 78  0  0  1  0  0  0  0  0999 V2000
   26.3471   -2.5485   53.8987 C   0  0  0  0  0  0  0  0  0  0  0  0
   25.1820   -1.7944   53.6705 C   0  0  0  0  0  0  0  0  0  0  0  0
   31.2574    2.2098   58.0496 C   0  0  0  0  0  0  0  0  0  0  0  0
   31.3445    0.9431   55.9691 C   0  0  0  0  0  0  0  0  0  0  0  0
   17.4553   -1.2620   52.2667 C   0  0  0  0  0  0  0  0  0  0  0  0
   27.3539   -2.0501   54.7473 C   0  0  0  0  0  0  0  0  0  0  0  0
   22.8236   -1.9961   55.9945 C   0  0  0  0  0  0  0  0  0  0  0  0
   22.2130   -3.1019   56.6174 C   0  0  0  0  0  0  0  0  0  0  0  0
   30.8337    1.1025   57.2806 C   0  0  0  0  0  0  0  0  0  0  0  0
   27.1880   -0.7871   55.3790 C   0  0  0  0  0  0  0  0  0  0  0  0
   22.0551   -1.3119   55.0266 C   0  0  0  0  0  0  0  0  0  0  0  0
   23.8286    0.2455   54.0413 C   0  0  0  0  0  0  0  0  0  0  0  0
   20.3298   -2.7890   55.3665 C   0  0  0  0  0  0  0  0  0  0  0  0
   20.4343    1.1587   53.4767 C   0  0  0  0  0  0  0  0  0  0  0  0
   29.1374   -0.8012   56.9461 C   0  0  0  0  0  0  0  0  0  0  0  0
   32.6272    3.0010   56.1991 C   0  0  0  0  0  0  0  0  0  0  0  0
   32.1589    3.1461   57.5153 C   0  0  0  0  0  0  0  0  0  0  0  0
   32.2294    1.8932   55.4271 C   0  0  0  0  0  0  0  0  0  0  0  0
   15.7119   -2.1122   53.7632 C   0  0  0  0  0  0  0  0  0  0  0  0
   18.4179   -1.8646   53.0813 C   0  0  0  0  0  0  0  0  0  0  0  0
   16.6962   -2.7636   54.5335 C   0  0  0  0  0  0  0  0  0  0  0  0
   26.0545   -0.0111   55.0861 C   0  0  0  0  0  0  0  0  0  0  0  0
   25.0455   -0.5155   54.2543 C   0  0  0  0  0  0  0  0  0  0  0  0
   16.0991   -1.3803   52.6025 C   0  0  0  0  0  0  0  0  0  0  0  0
   18.0629   -2.6106   54.2238 C   0  0  0  0  0  0  0  0  0  0  0  0
   22.5377   -0.1268   54.3076 C   0  0  0  0  0  0  0  0  0  0  0  0
   22.6450    1.8240   53.2633 C   0  0  0  0  0  0  0  0  0  0  0  0
   20.2208    2.3545   52.8369 C   0  0  0  0  0  0  0  0  0  0  0  0
   29.8869    0.0953   57.9385 C   0  0  1  0  0  0  0  0  0  0  0  0
   20.9625   -3.5016   56.2997 N   0  0  0  0  0  0  0  0  0  0  0  0
   20.8100   -1.7128   54.7430 N   0  0  0  0  0  0  0  0  0  0  0  0
   23.8795    1.5253   53.4752 N   0  0  0  0  0  0  0  0  0  0  0  0
   21.7458    0.8685   53.7103 N   0  0  0  0  0  0  0  0  0  0  0  0
   15.0707   -0.7030   51.7057 C   0  0  1  0  0  0  0  0  0  0  0  0
   19.0442   -3.1840   55.0439 N   0  0  0  0  0  0  0  0  0  0  0  0
   28.0897   -0.2280   56.3250 N   0  0  0  0  0  0  0  0  0  0  0  0
   29.5192   -1.9558   56.7761 O   0  0  0  0  0  0  0  0  0  0  0  0
   21.7500    3.1353   52.5230 S   0  0  0  0  0  0  0  0  0  0  0  0
   26.4668   -3.5140   53.4346 H   0  0  0  0  0  0  0  0  0  0  0  0
   24.4032   -2.1876   53.0337 H   0  0  0  0  0  0  0  0  0  0  0  0
   30.8954    2.3336   59.0620 H   0  0  0  0  0  0  0  0  0  0  0  0
   31.0722    0.0888   55.3684 H   0  0  0  0  0  0  0  0  0  0  0  0
   28.2251   -2.6654   54.9106 H   0  0  0  0  0  0  0  0  0  0  0  0
   23.8156   -1.6852   56.2798 H   0  0  0  0  0  0  0  0  0  0  0  0
   22.7221   -3.6625   57.3846 H   0  0  0  0  0  0  0  0  0  0  0  0
   19.6761    0.4654   53.7966 H   0  0  0  0  0  0  0  0  0  0  0  0
   33.3107    3.7301   55.7907 H   0  0  0  0  0  0  0  0  0  0  0  0
   32.4845    3.9799   58.1174 H   0  0  0  0  0  0  0  0  0  0  0  0
   32.6113    1.7699   54.4252 H   0  0  0  0  0  0  0  0  0  0  0  0
   19.4389   -1.7732   52.7582 H   0  0  0  0  0  0  0  0  0  0  0  0
   16.3877   -3.3265   55.3926 H   0  0  0  0  0  0  0  0  0  0  0  0
   25.9194    0.9545   55.5559 H   0  0  0  0  0  0  0  0  0  0  0  0
   19.2953    2.8209   52.5271 H   0  0  0  0  0  0  0  0  0  0  0  0
   30.4706   -0.5318   58.6080 H   0  0  0  0  0  0  0  0  0  0  0  0
   29.1604    0.6263   58.5561 H   0  0  0  0  0  0  0  0  0  0  0  0
   18.6783   -3.8823   55.6807 H   0  0  0  0  0  0  0  0  0  0  0  0
   27.8915    0.7371   56.5977 H   0  0  0  0  0  0  0  0  0  0  0  0
   15.1040    0.3695   51.8992 H   0  0  0  0  0  0  0  0  0  0  0  0
   13.6496   -1.2395   51.9454 C   0  0  2  0  0  0  0  0  0  0  0  0
   14.2455   -2.1050   54.1864 C   0  0  1  0  0  0  0  0  0  0  0  0
   13.8528   -3.1225   54.1912 H   0  0  0  0  0  0  0  0  0  0  0  0
   14.2346   -1.6699   55.1622 H   0  0  0  0  0  0  0  0  0  0  0  0
   13.3586   -1.1899   53.4019 N   0  0  2  0  0  0  0  0  0  0  0  0
   13.5555   -2.2662   51.5875 H   0  0  0  0  0  0  0  0  0  0  0  0
   12.9327   -0.6351   51.3872 H   0  0  0  0  0  0  0  0  0  0  0  0
   17.7575   -0.7102   51.3890 H   0  0  0  0  0  0  0  0  0  0  0  0
   15.3450   -0.8471   50.6601 H   0  0  0  0  0  0  0  0  0  0  0  0
   13.5891   -0.2436   53.6967 H   0  0  0  0  0  0  0  0  0  0  0  0
   11.9162   -1.3644   53.7276 C   0  0  1  0  0  0  0  0  0  0  0  0
   11.5642   -2.3529   53.4262 H   0  0  0  0  0  0  0  0  0  0  0  0
   11.7510   -1.2579   54.7998 H   0  0  0  0  0  0  0  0  0  0  0  0
   11.3077   -0.6157   53.2184 H   0  0  0  0  0  0  0  0  0  0  0  0
  1  2  1  0
  1  6  2  0
  1 39  1  0
  2 23  2  0
  2 40  1  0
  3  9  1  0
  3 17  2  0
  3 41  1  0
  4  9  2  0
  4 18  1  0
  4 42  1  0
  5 20  1  0
  5 24  2  0
  5 66  1  0
  6 10  1  0
  6 43  1  0
  7  8  1  0
  7 11  2  0
  7 44  1  0
  8 30  2  0
  8 45  1  0
  9 29  1  0
 10 22  2  0
 10 36  1  0
 11 26  1  0
 11 31  1  0
 12 23  1  0
 12 26  2  0
 12 32  1  0
 13 30  1  0
 13 31  2  0
 13 35  1  0
 14 28  2  0
 14 33  1  0
 14 46  1  0
 15 29  1  0
 15 36  1  0
 15 37  2  0
 16 17  1  0
 16 18  2  0
 16 47  1  0
 17 48  1  0
 18 49  1  0
 19 21  2  0
 19 24  1  0
 19 60  1  0
 20 25  2  0
 20 50  1  0
 21 25  1  0
 21 51  1  0
 22 23  1  0
 22 52  1  0
 24 34  1  0
 25 35  1  0
 26 33  1  0
 27 32  2  0
 27 33  1  0
 27 38  1  0
 28 38  1  0
 28 53  1  0
 29 54  1  1
 29 55  1  0
 34 58  1  1
 34 59  1  0
 34 67  1  0
 35 56  1  0
 36 57  1  0
 59 63  1  0
 59 64  1  6
 59 65  1  0
 60 61  1  1
 60 62  1  0
 60 63  1  0
 63 68  1  1
 63 69  1  0
 69 70  1  6
 69 71  1  0
 69 72  1  0
M  CHG  1  63   1
M  END
