21
     RDKit          3D

 72 78  0  0  1  0  0  0  0  0999 V2000
   26.3250   -2.5289   53.9312 C   0  0  0  0  0  0  0  0  0  0  0  0
   25.1880   -1.7631   53.6847 C   0  0  0  0  0  0  0  0  0  0  0  0
   31.3565    0.9605   55.9703 C   0  0  0  0  0  0  0  0  0  0  0  0
   31.2675    2.2117   58.0273 C   0  0  0  0  0  0  0  0  0  0  0  0
   17.4136   -1.1719   52.3828 C   0  0  0  0  0  0  0  0  0  0  0  0
   27.3251   -2.0411   54.7687 C   0  0  0  0  0  0  0  0  0  0  0  0
   22.8368   -1.9839   55.9934 C   0  0  0  0  0  0  0  0  0  0  0  0
   22.2341   -3.0719   56.6245 C   0  0  0  0  0  0  0  0  0  0  0  0
   30.8405    1.1222   57.2650 C   0  0  0  0  0  0  0  0  0  0  0  0
   27.1824   -0.7831   55.3770 C   0  0  0  0  0  0  0  0  0  0  0  0
   22.0803   -1.3110   55.0248 C   0  0  0  0  0  0  0  0  0  0  0  0
   23.8462    0.2869   54.0200 C   0  0  0  0  0  0  0  0  0  0  0  0
   20.3324   -2.7881   55.3696 C   0  0  0  0  0  0  0  0  0  0  0  0
   20.4155    1.1296   53.4655 C   0  0  0  0  0  0  0  0  0  0  0  0
   29.1348   -0.7936   56.9377 C   0  0  0  0  0  0  0  0  0  0  0  0
   32.6424    2.9881   56.2032 C   0  0  0  0  0  0  0  0  0  0  0  0
   32.2462    1.8921   55.4412 C   0  0  0  0  0  0  0  0  0  0  0  0
   32.1649    3.1401   57.5018 C   0  0  0  0  0  0  0  0  0  0  0  0
   15.7223   -2.1599   53.7722 C   0  0  0  0  0  0  0  0  0  0  0  0
   18.3931   -1.8362   53.1098 C   0  0  0  0  0  0  0  0  0  0  0  0
   16.7065   -2.8049   54.5081 C   0  0  0  0  0  0  0  0  0  0  0  0
   26.0578   -0.0100   55.0848 C   0  0  0  0  0  0  0  0  0  0  0  0
   25.0485   -0.4908   54.2510 C   0  0  0  0  0  0  0  0  0  0  0  0
   16.0595   -1.2949   52.7251 C   0  0  0  0  0  0  0  0  0  0  0  0
   18.0581   -2.6075   54.2282 C   0  0  0  0  0  0  0  0  0  0  0  0
   22.5441   -0.1340   54.3114 C   0  0  0  0  0  0  0  0  0  0  0  0
   22.6354    1.8192   53.2444 C   0  0  0  0  0  0  0  0  0  0  0  0
   20.2696    2.3464   52.8298 C   0  0  0  0  0  0  0  0  0  0  0  0
   15.3830    0.2436   50.8710 C   0  0  1  0  0  0  0  0  0  0  0  0
   13.7523   -0.3360   52.6878 C   0  0  1  0  0  0  0  0  0  0  0  0
   14.1176    0.5847   50.0611 C   0  0  1  0  0  0  0  0  0  0  0  0
   13.1424    1.0152   52.2654 C   0  0  1  0  0  0  0  0  0  0  0  0
   29.8721    0.1303   57.9146 C   0  0  1  0  0  0  0  0  0  0  0  0
   20.9805   -3.4985   56.3217 N   0  0  0  0  0  0  0  0  0  0  0  0
   20.8250   -1.7044   54.7318 N   0  0  0  0  0  0  0  0  0  0  0  0
   23.9035    1.4817   53.4757 N   0  0  0  0  0  0  0  0  0  0  0  0
   21.7546    0.8477   53.7078 N   0  0  0  0  0  0  0  0  0  0  0  0
   15.0550   -0.5671   52.0458 N   0  0  0  0  0  0  0  0  0  0  0  0
   19.0188   -3.1743   55.0843 N   0  0  0  0  0  0  0  0  0  0  0  0
   28.0938   -0.2309   56.2974 N   0  0  0  0  0  0  0  0  0  0  0  0
   29.5243   -1.9498   56.7972 O   0  0  0  0  0  0  0  0  0  0  0  0
   13.0574    1.1466   50.8442 O   0  0  0  0  0  0  0  0  0  0  0  0
   21.7841    3.1702   52.5146 S   0  0  0  0  0  0  0  0  0  0  0  0
   26.4237   -3.5093   53.4871 H   0  0  0  0  0  0  0  0  0  0  0  0
   24.4121   -2.1634   53.0485 H   0  0  0  0  0  0  0  0  0  0  0  0
   31.0769    0.1096   55.3691 H   0  0  0  0  0  0  0  0  0  0  0  0
   30.8965    2.3323   59.0331 H   0  0  0  0  0  0  0  0  0  0  0  0
   17.7388   -0.5423   51.5687 H   0  0  0  0  0  0  0  0  0  0  0  0
   28.1876   -2.6648   54.9437 H   0  0  0  0  0  0  0  0  0  0  0  0
   23.8280   -1.6674   56.2777 H   0  0  0  0  0  0  0  0  0  0  0  0
   22.7528   -3.6124   57.3954 H   0  0  0  0  0  0  0  0  0  0  0  0
   19.6517    0.4338   53.7575 H   0  0  0  0  0  0  0  0  0  0  0  0
   33.3329    3.7096   55.7940 H   0  0  0  0  0  0  0  0  0  0  0  0
   32.6392    1.7579   54.4448 H   0  0  0  0  0  0  0  0  0  0  0  0
   32.4916    3.9773   58.0978 H   0  0  0  0  0  0  0  0  0  0  0  0
   14.6917   -2.3309   54.0468 H   0  0  0  0  0  0  0  0  0  0  0  0
   19.4116   -1.7155   52.7889 H   0  0  0  0  0  0  0  0  0  0  0  0
   16.3731   -3.4293   55.3128 H   0  0  0  0  0  0  0  0  0  0  0  0
   25.9310    0.9602   55.5378 H   0  0  0  0  0  0  0  0  0  0  0  0
   19.3436    2.8120   52.5271 H   0  0  0  0  0  0  0  0  0  0  0  0
   16.0861   -0.2807   50.2279 H   0  0  0  0  0  0  0  0  0  0  0  0
   15.8701    1.1601   51.1984 H   0  0  0  0  0  0  0  0  0  0  0  0
   13.8403   -0.3362   53.7749 H   0  0  0  0  0  0  0  0  0  0  0  0
   13.0766   -1.1482   52.4186 H   0  0  0  0  0  0  0  0  0  0  0  0
   14.3607    1.2776   49.2567 H   0  0  0  0  0  0  0  0  0  0  0  0
   13.7351   -0.3205   49.5872 H   0  0  0  0  0  0  0  0  0  0  0  0
   12.1479    1.1440   52.6932 H   0  0  0  0  0  0  0  0  0  0  0  0
   13.7519    1.8342   52.6513 H   0  0  0  0  0  0  0  0  0  0  0  0
   30.4330   -0.4704   58.6276 H   0  0  0  0  0  0  0  0  0  0  0  0
   29.1320    0.6802   58.4981 H   0  0  0  0  0  0  0  0  0  0  0  0
   18.6634   -3.8923   55.7023 H   0  0  0  0  0  0  0  0  0  0  0  0
   27.9118    0.7324   56.5484 H   0  0  0  0  0  0  0  0  0  0  0  0
  1  2  1  0
  1  6  2  0
  1 44  1  0
  2 23  2  0
  2 45  1  0
  3  9  1  0
  3 17  2  0
  3 46  1  0
  4  9  2  0
  4 18  1  0
  4 47  1  0
  5 20  1  0
  5 24  2  0
  5 48  1  0
  6 10  1  0
  6 49  1  0
  7  8  1  0
  7 11  2  0
  7 50  1  0
  8 34  2  0
  8 51  1  0
  9 33  1  0
 10 22  2  0
 10 40  1  0
 11 26  1  0
 11 35  1  0
 12 23  1  0
 12 26  2  0
 12 36  1  0
 13 34  1  0
 13 35  2  0
 13 39  1  0
 14 28  2  0
 14 37  1  0
 14 52  1  0
 15 33  1  0
 15 40  1  0
 15 41  2  0
 16 17  1  0
 16 18  2  0
 16 53  1  0
 17 54  1  0
 18 55  1  0
 19 21  2  0
 19 24  1  0
 19 56  1  0
 20 25  2  0
 20 57  1  0
 21 25  1  0
 21 58  1  0
 22 23  1  0
 22 59  1  0
 24 38  1  0
 25 39  1  0
 26 37  1  0
 27 36  2  0
 27 37  1  0
 27 43  1  0
 28 43  1  0
 28 60  1  0
 29 31  1  0
 29 38  1  0
 29 61  1  6
 29 62  1  0
 30 32  1  0
 30 38  1  0
 30 63  1  1
 30 64  1  0
 31 42  1  0
 31 65  1  6
 31 66  1  0
 32 42  1  0
 32 67  1  1
 32 68  1  0
 33 69  1  1
 33 70  1  0
 39 71  1  0
 40 72  1  0
M  END
