28charg
     RDKit          3D

 80 86  0  0  1  0  0  0  0  0999 V2000
   26.3546   -2.5464   53.9175 C   0  0  0  0  0  0  0  0  0  0  0  0
   25.1913   -1.7926   53.6864 C   0  0  0  0  0  0  0  0  0  0  0  0
   31.3462    0.9494   55.9805 C   0  0  0  0  0  0  0  0  0  0  0  0
   31.2533    2.2283   58.0552 C   0  0  0  0  0  0  0  0  0  0  0  0
   17.4390   -1.2148   52.3271 C   0  0  0  0  0  0  0  0  0  0  0  0
   27.3667   -2.0453   54.7615 C   0  0  0  0  0  0  0  0  0  0  0  0
   22.8233   -1.9938   55.9979 C   0  0  0  0  0  0  0  0  0  0  0  0
   22.2102   -3.0953   56.6210 C   0  0  0  0  0  0  0  0  0  0  0  0
   30.8325    1.1169   57.2931 C   0  0  0  0  0  0  0  0  0  0  0  0
   27.2064   -0.7764   55.3779 C   0  0  0  0  0  0  0  0  0  0  0  0
   22.0592   -1.3106   55.0187 C   0  0  0  0  0  0  0  0  0  0  0  0
   23.8339    0.2487   54.0374 C   0  0  0  0  0  0  0  0  0  0  0  0
   20.3327   -2.7907   55.3619 C   0  0  0  0  0  0  0  0  0  0  0  0
   20.4454    1.1488   53.4423 C   0  0  0  0  0  0  0  0  0  0  0  0
   29.1364   -0.7880   56.9677 C   0  0  0  0  0  0  0  0  0  0  0  0
   32.6276    3.0112   56.1995 C   0  0  0  0  0  0  0  0  0  0  0  0
   32.2307    1.8994   55.4341 C   0  0  0  0  0  0  0  0  0  0  0  0
   32.1558    3.1655   57.5167 C   0  0  0  0  0  0  0  0  0  0  0  0
   15.7147   -2.1357   53.7771 C   0  0  0  0  0  0  0  0  0  0  0  0
   18.4171   -1.8748   53.0729 C   0  0  0  0  0  0  0  0  0  0  0  0
   16.7066   -2.7886   54.5324 C   0  0  0  0  0  0  0  0  0  0  0  0
   26.0629   -0.0033   55.0910 C   0  0  0  0  0  0  0  0  0  0  0  0
   25.0547   -0.5107   54.2591 C   0  0  0  0  0  0  0  0  0  0  0  0
   16.0726   -1.3180   52.6660 C   0  0  0  0  0  0  0  0  0  0  0  0
   18.0682   -2.6233   54.2144 C   0  0  0  0  0  0  0  0  0  0  0  0
   22.5417   -0.1300   54.2949 C   0  0  0  0  0  0  0  0  0  0  0  0
   22.6609    1.8215   53.2459 C   0  0  0  0  0  0  0  0  0  0  0  0
   20.2270    2.3359   52.7894 C   0  0  0  0  0  0  0  0  0  0  0  0
   15.4521    0.5113   51.0421 C   0  0  2  0  0  0  0  0  0  0  0  0
   13.6923   -0.9712   51.9494 C   0  0  2  0  0  0  0  0  0  0  0  0
   14.7339    1.7360   51.6304 C   0  0  2  0  0  0  0  0  0  0  0  0
   12.9815    0.2389   52.5788 C   0  0  1  0  0  0  0  0  0  0  0  0
   29.8858    0.1149   57.9557 C   0  0  1  0  0  0  0  0  0  0  0  0
   20.9598   -3.4982   56.3025 N   0  0  0  0  0  0  0  0  0  0  0  0
   20.8149   -1.7195   54.7303 N   0  0  0  0  0  0  0  0  0  0  0  0
   23.8940    1.5176   53.4735 N   0  0  0  0  0  0  0  0  0  0  0  0
   21.7563    0.8672   53.6913 N   0  0  0  0  0  0  0  0  0  0  0  0
   15.1197   -0.6866   51.8309 N   0  0  0  0  0  0  0  0  0  0  0  0
   19.0478   -3.1948   55.0382 N   0  0  0  0  0  0  0  0  0  0  0  0
   28.1273   -0.1993   56.2971 N   0  0  0  0  0  0  0  0  0  0  0  0
   29.4820   -1.9606   56.8325 O   0  0  0  0  0  0  0  0  0  0  0  0
   13.2786    1.4652   51.7850 N   0  0  1  0  0  0  0  0  0  0  0  0
   21.7463    3.1328   52.5053 S   0  0  0  0  0  0  0  0  0  0  0  0
   26.4714   -3.5191   53.4599 H   0  0  0  0  0  0  0  0  0  0  0  0
   24.4100   -2.1920   53.0570 H   0  0  0  0  0  0  0  0  0  0  0  0
   31.0801    0.0887   55.3856 H   0  0  0  0  0  0  0  0  0  0  0  0
   30.8952    2.3440   59.0682 H   0  0  0  0  0  0  0  0  0  0  0  0
   17.7771   -0.6938   51.4505 H   0  0  0  0  0  0  0  0  0  0  0  0
   28.2441   -2.6535   54.9182 H   0  0  0  0  0  0  0  0  0  0  0  0
   23.8155   -1.6818   56.2823 H   0  0  0  0  0  0  0  0  0  0  0  0
   22.7219   -3.6554   57.3895 H   0  0  0  0  0  0  0  0  0  0  0  0
   19.6871    0.4513   53.7626 H   0  0  0  0  0  0  0  0  0  0  0  0
   33.3175    3.7341   55.7900 H   0  0  0  0  0  0  0  0  0  0  0  0
   32.6184    1.7687   54.4341 H   0  0  0  0  0  0  0  0  0  0  0  0
   32.4881    4.0014   58.1152 H   0  0  0  0  0  0  0  0  0  0  0  0
   14.6899   -2.2611   54.0937 H   0  0  0  0  0  0  0  0  0  0  0  0
   19.4339   -1.7930   52.7346 H   0  0  0  0  0  0  0  0  0  0  0  0
   16.4023   -3.3679   55.3910 H   0  0  0  0  0  0  0  0  0  0  0  0
   25.9310    0.9680   55.5512 H   0  0  0  0  0  0  0  0  0  0  0  0
   19.2997    2.7879   52.4666 H   0  0  0  0  0  0  0  0  0  0  0  0
   16.5076    0.7416   50.9832 H   0  0  0  0  0  0  0  0  0  0  0  0
   15.1306    0.3430   50.0110 H   0  0  0  0  0  0  0  0  0  0  0  0
   13.3008   -1.1374   50.9443 H   0  0  0  0  0  0  0  0  0  0  0  0
   13.4686   -1.8871   52.4914 H   0  0  0  0  0  0  0  0  0  0  0  0
   14.8886    2.6051   50.9879 H   0  0  0  0  0  0  0  0  0  0  0  0
   15.1784    1.9734   52.5994 H   0  0  0  0  0  0  0  0  0  0  0  0
   11.9060    0.0602   52.6090 H   0  0  0  0  0  0  0  0  0  0  0  0
   13.3126    0.3681   53.6115 H   0  0  0  0  0  0  0  0  0  0  0  0
   30.4671   -0.5028   58.6384 H   0  0  0  0  0  0  0  0  0  0  0  0
   29.1545    0.6492   58.5652 H   0  0  0  0  0  0  0  0  0  0  0  0
   18.6820   -3.8863   55.6877 H   0  0  0  0  0  0  0  0  0  0  0  0
   27.9512    0.7752   56.5404 H   0  0  0  0  0  0  0  0  0  0  0  0
   12.9616    1.2528   50.8463 H   0  0  0  0  0  0  0  0  0  0  0  0
   12.4732    2.6468   52.1859 C   0  0  1  0  0  0  0  0  0  0  0  0
   12.7951    3.1892   53.5997 C   0  0  1  0  0  0  0  0  0  0  0  0
   12.5990    3.4276   51.4284 H   0  0  0  0  0  0  0  0  0  0  0  0
   11.4289    2.3265   52.1376 H   0  0  0  0  0  0  0  0  0  0  0  0
   12.2285    4.0993   53.7949 H   0  0  0  0  0  0  0  0  0  0  0  0
   12.5384    2.4703   54.3788 H   0  0  0  0  0  0  0  0  0  0  0  0
   13.8451    3.4581   53.7135 H   0  0  0  0  0  0  0  0  0  0  0  0
  1  2  1  0
  1  6  2  0
  1 44  1  0
  2 23  2  0
  2 45  1  0
  3  9  1  0
  3 17  2  0
  3 46  1  0
  4  9  2  0
  4 18  1  0
  4 47  1  0
  5 20  1  0
  5 24  2  0
  5 48  1  0
  6 10  1  0
  6 49  1  0
  7  8  1  0
  7 11  2  0
  7 50  1  0
  8 34  2  0
  8 51  1  0
  9 33  1  0
 10 22  2  0
 10 40  1  0
 11 26  1  0
 11 35  1  0
 12 23  1  0
 12 26  2  0
 12 36  1  0
 13 34  1  0
 13 35  2  0
 13 39  1  0
 14 28  2  0
 14 37  1  0
 14 52  1  0
 15 33  1  0
 15 40  1  0
 15 41  2  0
 16 17  1  0
 16 18  2  0
 16 53  1  0
 17 54  1  0
 18 55  1  0
 19 21  2  0
 19 24  1  0
 19 56  1  0
 20 25  2  0
 20 57  1  0
 21 25  1  0
 21 58  1  0
 22 23  1  0
 22 59  1  0
 24 38  1  0
 25 39  1  0
 26 37  1  0
 27 36  2  0
 27 37  1  0
 27 43  1  0
 28 43  1  0
 28 60  1  0
 29 31  1  0
 29 38  1  0
 29 61  1  6
 29 62  1  0
 30 32  1  0
 30 38  1  0
 30 63  1  6
 30 64  1  0
 31 42  1  0
 31 65  1  6
 31 66  1  0
 32 42  1  0
 32 67  1  1
 32 68  1  0
 33 69  1  1
 33 70  1  0
 39 71  1  0
 40 72  1  0
 42 73  1  6
 42 74  1  0
 74 75  1  0
 74 76  1  6
 74 77  1  0
 75 78  1  1
 75 79  1  0
 75 80  1  0
M  CHG  1  42   1
M  END
