27neu
     RDKit          3D

 71 77  0  0  1  0  0  0  0  0999 V2000
   26.3289   -2.5613   53.9073 C   0  0  0  0  0  0  0  0  0  0  0  0
   25.1653   -1.8038   53.6773 C   0  0  0  0  0  0  0  0  0  0  0  0
   31.2516    2.2061   58.0405 C   0  0  0  0  0  0  0  0  0  0  0  0
   31.3398    0.9353   55.9590 C   0  0  0  0  0  0  0  0  0  0  0  0
   17.4225   -1.2156   52.2784 C   0  0  0  0  0  0  0  0  0  0  0  0
   27.3400   -2.0608   54.7498 C   0  0  0  0  0  0  0  0  0  0  0  0
   22.8061   -2.0011   55.9891 C   0  0  0  0  0  0  0  0  0  0  0  0
   22.2003   -3.1028   56.6125 C   0  0  0  0  0  0  0  0  0  0  0  0
   30.8297    1.1001   57.2730 C   0  0  0  0  0  0  0  0  0  0  0  0
   27.1891   -0.7881   55.3699 C   0  0  0  0  0  0  0  0  0  0  0  0
   22.0476   -1.3066   55.0169 C   0  0  0  0  0  0  0  0  0  0  0  0
   23.8190    0.2508   54.0266 C   0  0  0  0  0  0  0  0  0  0  0  0
   20.3184   -2.7853   55.3619 C   0  0  0  0  0  0  0  0  0  0  0  0
   20.4290    1.1581   53.4700 C   0  0  0  0  0  0  0  0  0  0  0  0
   29.1336   -0.8014   56.9426 C   0  0  0  0  0  0  0  0  0  0  0  0
   32.6275    2.9955   56.1935 C   0  0  0  0  0  0  0  0  0  0  0  0
   32.1543    3.1416   57.5077 C   0  0  0  0  0  0  0  0  0  0  0  0
   32.2287    1.8898   55.4216 C   0  0  0  0  0  0  0  0  0  0  0  0
   15.7033   -2.1302   53.7368 C   0  0  0  0  0  0  0  0  0  0  0  0
   18.4043   -1.8482   53.0626 C   0  0  0  0  0  0  0  0  0  0  0  0
   16.6888   -2.7737   54.5229 C   0  0  0  0  0  0  0  0  0  0  0  0
   26.0449   -0.0175   55.0840 C   0  0  0  0  0  0  0  0  0  0  0  0
   25.0327   -0.5228   54.2558 C   0  0  0  0  0  0  0  0  0  0  0  0
   16.0675   -1.3541   52.6090 C   0  0  0  0  0  0  0  0  0  0  0  0
   18.0539   -2.6031   54.2096 C   0  0  0  0  0  0  0  0  0  0  0  0
   22.5339   -0.1240   54.2944 C   0  0  0  0  0  0  0  0  0  0  0  0
   22.6531    1.8243   53.2545 C   0  0  0  0  0  0  0  0  0  0  0  0
   20.2264    2.3574   52.8291 C   0  0  0  0  0  0  0  0  0  0  0  0
   29.8897    0.0905   57.9304 C   0  0  1  0  0  0  0  0  0  0  0  0
   20.9470   -3.5029   56.2884 N   0  0  0  0  0  0  0  0  0  0  0  0
   20.8013   -1.7091   54.7382 N   0  0  0  0  0  0  0  0  0  0  0  0
   23.8847    1.5104   53.4513 N   0  0  0  0  0  0  0  0  0  0  0  0
   21.7364    0.8726   53.7064 N   0  0  0  0  0  0  0  0  0  0  0  0
   14.9941   -0.7049   51.7343 C   0  0  1  0  0  0  0  0  0  0  0  0
   19.0302   -3.1694   55.0359 N   0  0  0  0  0  0  0  0  0  0  0  0
   28.1223   -0.2164   56.2771 N   0  0  0  0  0  0  0  0  0  0  0  0
   29.4848   -1.9703   56.8014 O   0  0  0  0  0  0  0  0  0  0  0  0
   21.7502    3.1382   52.5317 S   0  0  0  0  0  0  0  0  0  0  0  0
   26.4467   -3.5384   53.4447 H   0  0  0  0  0  0  0  0  0  0  0  0
   24.3945   -2.1916   53.0300 H   0  0  0  0  0  0  0  0  0  0  0  0
   30.8980    2.3320   59.0465 H   0  0  0  0  0  0  0  0  0  0  0  0
   31.0708    0.0732   55.3614 H   0  0  0  0  0  0  0  0  0  0  0  0
   28.2130   -2.6744   54.9183 H   0  0  0  0  0  0  0  0  0  0  0  0
   23.8032   -1.7028   56.2745 H   0  0  0  0  0  0  0  0  0  0  0  0
   22.7031   -3.6732   57.3774 H   0  0  0  0  0  0  0  0  0  0  0  0
   19.6489    0.4642   53.7586 H   0  0  0  0  0  0  0  0  0  0  0  0
   33.3130    3.7204   55.7860 H   0  0  0  0  0  0  0  0  0  0  0  0
   32.4846    3.9738   58.1066 H   0  0  0  0  0  0  0  0  0  0  0  0
   32.6184    1.7610   54.4197 H   0  0  0  0  0  0  0  0  0  0  0  0
   19.4269   -1.7323   52.7710 H   0  0  0  0  0  0  0  0  0  0  0  0
   16.3834   -3.3324   55.3960 H   0  0  0  0  0  0  0  0  0  0  0  0
   25.9280    0.9580   55.5348 H   0  0  0  0  0  0  0  0  0  0  0  0
   19.3095    2.8269   52.5010 H   0  0  0  0  0  0  0  0  0  0  0  0
   30.4797   -0.5385   58.5920 H   0  0  0  0  0  0  0  0  0  0  0  0
   29.1755    0.6146   58.5636 H   0  0  0  0  0  0  0  0  0  0  0  0
   18.6402   -3.8708   55.6643 H   0  0  0  0  0  0  0  0  0  0  0  0
   27.9545    0.7632   56.4988 H   0  0  0  0  0  0  0  0  0  0  0  0
   15.3328    0.2766   51.4177 H   0  0  0  0  0  0  0  0  0  0  0  0
   13.6483   -0.5699   52.4737 C   0  0  2  0  0  0  0  0  0  0  0  0
   14.2431   -2.2087   54.1386 C   0  0  1  0  0  0  0  0  0  0  0  0
   14.0406   -3.2353   54.4493 H   0  0  0  0  0  0  0  0  0  0  0  0
   14.1102   -1.5341   54.9959 H   0  0  0  0  0  0  0  0  0  0  0  0
   13.2897   -1.8655   53.0666 N   0  0  0  0  0  0  0  0  0  0  0  0
   12.8664   -0.2379   51.7786 H   0  0  0  0  0  0  0  0  0  0  0  0
   13.7225    0.1700   53.2775 H   0  0  0  0  0  0  0  0  0  0  0  0
   17.7196   -0.6334   51.4125 H   0  0  0  0  0  0  0  0  0  0  0  0
   14.8690   -1.2985   50.8289 H   0  0  0  0  0  0  0  0  0  0  0  0
   11.9263   -1.7851   53.5986 C   0  0  1  0  0  0  0  0  0  0  0  0
   11.2153   -1.5520   52.8041 H   0  0  0  0  0  0  0  0  0  0  0  0
   11.6442   -2.7438   54.0268 H   0  0  0  0  0  0  0  0  0  0  0  0
   11.8423   -1.0126   54.3648 H   0  0  0  0  0  0  0  0  0  0  0  0
  1  2  1  0
  1  6  2  0
  1 39  1  0
  2 23  2  0
  2 40  1  0
  3  9  1  0
  3 17  2  0
  3 41  1  0
  4  9  2  0
  4 18  1  0
  4 42  1  0
  5 20  1  0
  5 24  2  0
  5 66  1  0
  6 10  1  0
  6 43  1  0
  7  8  1  0
  7 11  2  0
  7 44  1  0
  8 30  2  0
  8 45  1  0
  9 29  1  0
 10 22  2  0
 10 36  1  0
 11 26  1  0
 11 31  1  0
 12 23  1  0
 12 26  2  0
 12 32  1  0
 13 30  1  0
 13 31  2  0
 13 35  1  0
 14 28  2  0
 14 33  1  0
 14 46  1  0
 15 29  1  0
 15 36  1  0
 15 37  2  0
 16 17  1  0
 16 18  2  0
 16 47  1  0
 17 48  1  0
 18 49  1  0
 19 21  2  0
 19 24  1  0
 19 60  1  0
 20 25  2  0
 20 50  1  0
 21 25  1  0
 21 51  1  0
 22 23  1  0
 22 52  1  0
 24 34  1  0
 25 35  1  0
 26 33  1  0
 27 32  2  0
 27 33  1  0
 27 38  1  0
 28 38  1  0
 28 53  1  0
 29 54  1  1
 29 55  1  0
 34 58  1  6
 34 59  1  0
 34 67  1  0
 35 56  1  0
 36 57  1  0
 59 63  1  0
 59 64  1  6
 59 65  1  0
 60 61  1  1
 60 62  1  0
 60 63  1  0
 63 68  1  0
 68 69  1  6
 68 70  1  0
 68 71  1  0
M  END
