30neu
     RDKit          3D

 68 74  0  0  1  0  0  0  0  0999 V2000
   26.3478   -2.5359   53.9119 C   0  0  0  0  0  0  0  0  0  0  0  0
   25.1864   -1.7802   53.6817 C   0  0  0  0  0  0  0  0  0  0  0  0
   31.2675    2.2136   58.0505 C   0  0  0  0  0  0  0  0  0  0  0  0
   31.3503    0.9522   55.9673 C   0  0  0  0  0  0  0  0  0  0  0  0
   17.4828   -1.3641   52.2004 C   0  0  0  0  0  0  0  0  0  0  0  0
   27.3583   -2.0351   54.7567 C   0  0  0  0  0  0  0  0  0  0  0  0
   22.8275   -1.9888   55.9976 C   0  0  0  0  0  0  0  0  0  0  0  0
   22.2194   -3.0903   56.6225 C   0  0  0  0  0  0  0  0  0  0  0  0
   30.8442    1.1100   57.2824 C   0  0  0  0  0  0  0  0  0  0  0  0
   27.2010   -0.7692   55.3785 C   0  0  0  0  0  0  0  0  0  0  0  0
   22.0590   -1.3129   55.0230 C   0  0  0  0  0  0  0  0  0  0  0  0
   23.8274    0.2604   54.0388 C   0  0  0  0  0  0  0  0  0  0  0  0
   20.3309   -2.7879   55.3672 C   0  0  0  0  0  0  0  0  0  0  0  0
   20.4259    1.1471   53.4691 C   0  0  0  0  0  0  0  0  0  0  0  0
   29.1367   -0.7904   56.9589 C   0  0  0  0  0  0  0  0  0  0  0  0
   32.6290    3.0151   56.1977 C   0  0  0  0  0  0  0  0  0  0  0  0
   32.1656    3.1547   57.5155 C   0  0  0  0  0  0  0  0  0  0  0  0
   32.2301    1.9071   55.4269 C   0  0  0  0  0  0  0  0  0  0  0  0
   15.6990   -2.2804   53.5882 C   0  0  0  0  0  0  0  0  0  0  0  0
   18.4438   -1.8608   53.0976 C   0  0  0  0  0  0  0  0  0  0  0  0
   16.6765   -2.7645   54.4854 C   0  0  0  0  0  0  0  0  0  0  0  0
   26.0590    0.0017   55.0919 C   0  0  0  0  0  0  0  0  0  0  0  0
   25.0476   -0.4989   54.2541 C   0  0  0  0  0  0  0  0  0  0  0  0
   16.1145   -1.6108   52.4162 C   0  0  0  0  0  0  0  0  0  0  0  0
   18.0555   -2.6062   54.2223 C   0  0  0  0  0  0  0  0  0  0  0  0
   22.5408   -0.1271   54.3049 C   0  0  0  0  0  0  0  0  0  0  0  0
   22.6464    1.8191   53.2525 C   0  0  0  0  0  0  0  0  0  0  0  0
   20.2204    2.3495   52.8330 C   0  0  0  0  0  0  0  0  0  0  0  0
   29.8987    0.1046   57.9420 C   0  0  1  0  0  0  0  0  0  0  0  0
   20.9696   -3.4961   56.3061 N   0  0  0  0  0  0  0  0  0  0  0  0
   20.8142   -1.7124   54.7359 N   0  0  0  0  0  0  0  0  0  0  0  0
   23.8845    1.5128   53.4600 N   0  0  0  0  0  0  0  0  0  0  0  0
   21.7407    0.8649   53.7063 N   0  0  0  0  0  0  0  0  0  0  0  0
   15.1005   -1.1779   51.3660 C   0  0  1  0  0  0  0  0  0  0  0  0
   19.0403   -3.1814   55.0424 N   0  0  0  0  0  0  0  0  0  0  0  0
   28.1234   -0.2016   56.2955 N   0  0  0  0  0  0  0  0  0  0  0  0
   29.4841   -1.9626   56.8215 O   0  0  0  0  0  0  0  0  0  0  0  0
   21.7485    3.1379   52.5264 S   0  0  0  0  0  0  0  0  0  0  0  0
   26.4648   -3.5069   53.4531 H   0  0  0  0  0  0  0  0  0  0  0  0
   24.4051   -2.1778   53.0516 H   0  0  0  0  0  0  0  0  0  0  0  0
   30.9156    2.3266   59.0681 H   0  0  0  0  0  0  0  0  0  0  0  0
   31.0778    0.0982   55.3695 H   0  0  0  0  0  0  0  0  0  0  0  0
   28.2351   -2.6422   54.9169 H   0  0  0  0  0  0  0  0  0  0  0  0
   23.8192   -1.6766   56.2748 H   0  0  0  0  0  0  0  0  0  0  0  0
   22.7378   -3.6508   57.3866 H   0  0  0  0  0  0  0  0  0  0  0  0
   19.6663    0.4527   53.7909 H   0  0  0  0  0  0  0  0  0  0  0  0
   33.3164    3.7419   55.7910 H   0  0  0  0  0  0  0  0  0  0  0  0
   32.4996    3.9879   58.1170 H   0  0  0  0  0  0  0  0  0  0  0  0
   32.6130    1.7853   54.4243 H   0  0  0  0  0  0  0  0  0  0  0  0
   19.4870   -1.7021   52.8682 H   0  0  0  0  0  0  0  0  0  0  0  0
   16.3410   -3.2664   55.3800 H   0  0  0  0  0  0  0  0  0  0  0  0
   25.9303    0.9732   55.5490 H   0  0  0  0  0  0  0  0  0  0  0  0
   19.2927    2.8171   52.5265 H   0  0  0  0  0  0  0  0  0  0  0  0
   30.4910   -0.5273   58.6039 H   0  0  0  0  0  0  0  0  0  0  0  0
   29.1841    0.6315   58.5722 H   0  0  0  0  0  0  0  0  0  0  0  0
   18.6851   -3.9024   55.6582 H   0  0  0  0  0  0  0  0  0  0  0  0
   27.9526    0.7754   56.5386 H   0  0  0  0  0  0  0  0  0  0  0  0
   14.9071   -0.1118   51.4876 H   0  0  0  0  0  0  0  0  0  0  0  0
   13.7874   -1.9827   51.4741 C   0  0  2  0  0  0  0  0  0  0  0  0
   14.2080   -2.5210   53.8767 C   0  0  1  0  0  0  0  0  0  0  0  0
   14.0153   -3.5904   53.8671 H   0  0  0  0  0  0  0  0  0  0  0  0
   13.9634   -2.1573   54.8722 H   0  0  0  0  0  0  0  0  0  0  0  0
   13.2829   -1.9221   52.8696 N   0  0  0  0  0  0  0  0  0  0  0  0
   13.9479   -3.0250   51.1911 H   0  0  0  0  0  0  0  0  0  0  0  0
   13.0353   -1.5847   50.7911 H   0  0  0  0  0  0  0  0  0  0  0  0
   17.8057   -0.8319   51.3120 H   0  0  0  0  0  0  0  0  0  0  0  0
   15.5269   -1.3106   50.3723 H   0  0  0  0  0  0  0  0  0  0  0  0
   12.3856   -2.3927   52.9144 H   0  0  0  0  0  0  0  0  0  0  0  0
  1  2  1  0
  1  6  2  0
  1 39  1  0
  2 23  2  0
  2 40  1  0
  3  9  1  0
  3 17  2  0
  3 41  1  0
  4  9  2  0
  4 18  1  0
  4 42  1  0
  5 20  1  0
  5 24  2  0
  5 66  1  0
  6 10  1  0
  6 43  1  0
  7  8  1  0
  7 11  2  0
  7 44  1  0
  8 30  2  0
  8 45  1  0
  9 29  1  0
 10 22  2  0
 10 36  1  0
 11 26  1  0
 11 31  1  0
 12 23  1  0
 12 26  2  0
 12 32  1  0
 13 30  1  0
 13 31  2  0
 13 35  1  0
 14 28  2  0
 14 33  1  0
 14 46  1  0
 15 29  1  0
 15 36  1  0
 15 37  2  0
 16 17  1  0
 16 18  2  0
 16 47  1  0
 17 48  1  0
 18 49  1  0
 19 21  2  0
 19 24  1  0
 19 60  1  0
 20 25  2  0
 20 50  1  0
 21 25  1  0
 21 51  1  0
 22 23  1  0
 22 52  1  0
 24 34  1  0
 25 35  1  0
 26 33  1  0
 27 32  2  0
 27 33  1  0
 27 38  1  0
 28 38  1  0
 28 53  1  0
 29 54  1  1
 29 55  1  0
 34 58  1  1
 34 59  1  0
 34 67  1  0
 35 56  1  0
 36 57  1  0
 59 63  1  0
 59 64  1  6
 59 65  1  0
 60 61  1  1
 60 62  1  0
 60 63  1  0
 63 68  1  0
M  END
