18
     RDKit          3D

 59 61  0  0  1  0  0  0  0  0999 V2000
   19.5138   -2.9166    5.3669 O   0  0  0  0  0  0  0  0  0  0  0  0
   18.4293   -2.5373    4.9386 C   0  0  0  0  0  0  0  0  0  0  0  0
   17.5490   -1.8190    5.6543 N   0  0  0  0  0  0  0  0  0  0  0  0
   17.7166   -1.3364    6.9750 C   0  0  0  0  0  0  0  0  0  0  0  0
   17.0944   -0.1288    7.3501 C   0  0  0  0  0  0  0  0  0  0  0  0
   16.2818    0.5305    6.4462 O   0  0  0  0  0  0  0  0  0  0  0  0
   15.3750    1.4914    6.8297 C   0  0  0  0  0  0  0  0  0  0  0  0
   15.2938    2.7215    6.1389 C   0  0  0  0  0  0  0  0  0  0  0  0
   16.2220    3.0448    4.9763 C   0  0  2  0  0  0  0  0  0  0  0  0
   16.0415    2.0746    3.8063 C   0  0  1  0  0  0  0  0  0  0  0  0
   17.6865    3.1224    5.4207 C   0  0  1  0  0  0  0  0  0  0  0  0
   14.3339    3.6687    6.5435 C   0  0  0  0  0  0  0  0  0  0  0  0
   13.4567    3.3994    7.6027 C   0  0  0  0  0  0  0  0  0  0  0  0
   13.5203    2.1717    8.2630 C   0  0  0  0  0  0  0  0  0  0  0  0
   14.4641    1.2219    7.8660 C   0  0  0  0  0  0  0  0  0  0  0  0
   17.2691    0.4228    8.5735 N   0  0  0  0  0  0  0  0  0  0  0  0
   18.0224   -0.2282    9.4773 C   0  0  0  0  0  0  0  0  0  0  0  0
   18.6299   -1.4601    9.2172 C   0  0  0  0  0  0  0  0  0  0  0  0
   18.4725   -2.0249    7.9470 C   0  0  0  0  0  0  0  0  0  0  0  0
   17.9835   -2.7724    3.6966 N   0  0  0  0  0  0  0  0  0  0  0  0
   18.6148   -3.4880    2.6540 C   0  0  0  0  0  0  0  0  0  0  0  0
   19.6098   -4.4593    2.8609 C   0  0  0  0  0  0  0  0  0  0  0  0
   20.1456   -5.1712    1.7823 C   0  0  0  0  0  0  0  0  0  0  0  0
   19.6886   -4.9557    0.4688 C   0  0  0  0  0  0  0  0  0  0  0  0
   20.1438   -5.8473   -0.6983 C   0  0  2  0  0  0  0  0  0  0  0  0
   18.9861   -6.7145   -1.2120 C   0  0  2  0  0  0  0  0  0  0  0  0
   21.2525   -6.8349   -0.3090 C   0  0  1  0  0  0  0  0  0  0  0  0
   20.6702   -4.9750   -1.8406 C   0  0  1  0  0  0  0  0  0  0  0  0
   18.7332   -3.9359    0.2637 C   0  0  0  0  0  0  0  0  0  0  0  0
   18.1882   -3.2280    1.3477 C   0  0  0  0  0  0  0  0  0  0  0  0
   16.7496   -1.4599    5.1539 H   0  0  0  0  0  0  0  0  0  0  0  0
   15.9489    4.0347    4.6066 H   0  0  0  0  0  0  0  0  0  0  0  0
   15.0019    2.0587    3.4726 H   0  0  0  0  0  0  0  0  0  0  0  0
   16.6502    2.3734    2.9531 H   0  0  0  0  0  0  0  0  0  0  0  0
   16.3231    1.0524    4.0523 H   0  0  0  0  0  0  0  0  0  0  0  0
   17.8031    3.8436    6.2327 H   0  0  0  0  0  0  0  0  0  0  0  0
   18.0692    2.1633    5.7688 H   0  0  0  0  0  0  0  0  0  0  0  0
   18.3233    3.4480    4.6002 H   0  0  0  0  0  0  0  0  0  0  0  0
   14.2576    4.6152    6.0304 H   0  0  0  0  0  0  0  0  0  0  0  0
   12.7285    4.1371    7.9080 H   0  0  0  0  0  0  0  0  0  0  0  0
   12.8374    1.9489    9.0699 H   0  0  0  0  0  0  0  0  0  0  0  0
   14.4869    0.2693    8.3719 H   0  0  0  0  0  0  0  0  0  0  0  0
   18.1332    0.2432   10.4404 H   0  0  0  0  0  0  0  0  0  0  0  0
   19.2108   -1.9607    9.9784 H   0  0  0  0  0  0  0  0  0  0  0  0
   18.9403   -2.9768    7.7395 H   0  0  0  0  0  0  0  0  0  0  0  0
   17.1154   -2.3243    3.4485 H   0  0  0  0  0  0  0  0  0  0  0  0
   19.9616   -4.7137    3.8477 H   0  0  0  0  0  0  0  0  0  0  0  0
   20.8801   -5.9291    2.0114 H   0  0  0  0  0  0  0  0  0  0  0  0
   19.2753   -7.2693   -2.1038 H   0  0  0  0  0  0  0  0  0  0  0  0
   18.1204   -6.1093   -1.4847 H   0  0  0  0  0  0  0  0  0  0  0  0
   18.6658   -7.4596   -0.4802 H   0  0  0  0  0  0  0  0  0  0  0  0
   22.1392   -6.3198    0.0612 H   0  0  0  0  0  0  0  0  0  0  0  0
   20.9306   -7.5402    0.4574 H   0  0  0  0  0  0  0  0  0  0  0  0
   21.5718   -7.4343   -1.1623 H   0  0  0  0  0  0  0  0  0  0  0  0
   21.4797   -4.3282   -1.4984 H   0  0  0  0  0  0  0  0  0  0  0  0
   21.0659   -5.5809   -2.6548 H   0  0  0  0  0  0  0  0  0  0  0  0
   19.8962   -4.3411   -2.2699 H   0  0  0  0  0  0  0  0  0  0  0  0
   18.3538   -3.7357   -0.7265 H   0  0  0  0  0  0  0  0  0  0  0  0
   17.4278   -2.4827    1.1647 H   0  0  0  0  0  0  0  0  0  0  0  0
  1  2  2  0
  2  3  1  0
  2 20  1  0
  3  4  1  0
  3 31  1  0
  4 19  1  0
  4  5  2  0
  5  6  1  0
  5 16  1  0
  6  7  1  0
  7 15  1  0
  7  8  2  0
  8  9  1  0
  8 12  1  0
  9 10  1  0
  9 11  1  0
  9 32  1  6
 10 33  1  6
 10 34  1  0
 10 35  1  0
 11 36  1  1
 11 37  1  0
 11 38  1  0
 12 13  2  0
 12 39  1  0
 13 14  1  0
 13 40  1  0
 14 15  2  0
 14 41  1  0
 15 42  1  0
 16 17  2  0
 17 18  1  0
 17 43  1  0
 18 19  2  0
 18 44  1  0
 19 45  1  0
 20 21  1  0
 20 46  1  0
 21 30  1  0
 21 22  2  0
 22 23  1  0
 22 47  1  0
 23 24  2  0
 23 48  1  0
 25 24  1  1
 24 29  1  0
 25 26  1  0
 25 27  1  0
 25 28  1  0
 26 49  1  6
 26 50  1  0
 26 51  1  0
 27 52  1  1
 27 53  1  0
 27 54  1  0
 28 55  1  1
 28 56  1  0
 28 57  1  0
 29 30  2  0
 29 58  1  0
 30 59  1  0
M  END
