11a
     RDKit          3D

 38 40  0  0  1  0  0  0  0  0999 V2000
   19.9579   -4.9376    4.0650 F   0  0  0  0  0  0  0  0  0  0  0  0
   19.5999   -4.4913    2.8444 C   0  0  0  0  0  0  0  0  0  0  0  0
   18.6169   -3.4939    2.6592 C   0  0  0  0  0  0  0  0  0  0  0  0
   17.9847   -2.7759    3.7033 N   0  0  0  0  0  0  0  0  0  0  0  0
   18.4269   -2.5256    4.9421 C   0  0  0  0  0  0  0  0  0  0  0  0
   19.5275   -2.8518    5.3698 O   0  0  0  0  0  0  0  0  0  0  0  0
   17.5424   -1.8168    5.6551 N   0  0  0  0  0  0  0  0  0  0  0  0
   17.7149   -1.3357    6.9746 C   0  0  0  0  0  0  0  0  0  0  0  0
   17.0953   -0.1297    7.3504 C   0  0  0  0  0  0  0  0  0  0  0  0
   16.2996    0.5398    6.4413 O   0  0  0  0  0  0  0  0  0  0  0  0
   15.3812    1.4868    6.8329 C   0  0  0  0  0  0  0  0  0  0  0  0
   15.3041    2.7127    6.1479 C   0  0  0  0  0  0  0  0  0  0  0  0
   14.3495    3.6685    6.5370 C   0  0  0  0  0  0  0  0  0  0  0  0
   13.4674    3.4038    7.5975 C   0  0  0  0  0  0  0  0  0  0  0  0
   13.5236    2.1764    8.2638 C   0  0  0  0  0  0  0  0  0  0  0  0
   14.4674    1.2222    7.8713 C   0  0  0  0  0  0  0  0  0  0  0  0
   17.2720    0.4204    8.5731 N   0  0  0  0  0  0  0  0  0  0  0  0
   18.0264   -0.2288    9.4768 C   0  0  0  0  0  0  0  0  0  0  0  0
   18.6290   -1.4616    9.2152 C   0  0  0  0  0  0  0  0  0  0  0  0
   18.4678   -2.0253    7.9449 C   0  0  0  0  0  0  0  0  0  0  0  0
   18.1817   -3.2150    1.3584 C   0  0  0  0  0  0  0  0  0  0  0  0
   18.7541   -3.8690    0.2582 C   0  0  0  0  0  0  0  0  0  0  0  0
   19.7622   -4.8220    0.4512 C   0  0  0  0  0  0  0  0  0  0  0  0
   20.2950   -5.4747   -0.6073 F   0  0  0  0  0  0  0  0  0  0  0  0
   20.1880   -5.1237    1.7438 C   0  0  0  0  0  0  0  0  0  0  0  0
   17.1125   -2.3341    3.4567 H   0  0  0  0  0  0  0  0  0  0  0  0
   16.7352   -1.4711    5.1581 H   0  0  0  0  0  0  0  0  0  0  0  0
   15.9803    2.9185    5.3350 H   0  0  0  0  0  0  0  0  0  0  0  0
   14.2897    4.6100    6.0084 H   0  0  0  0  0  0  0  0  0  0  0  0
   12.7356    4.1406    7.8918 H   0  0  0  0  0  0  0  0  0  0  0  0
   12.8369    1.9616    9.0713 H   0  0  0  0  0  0  0  0  0  0  0  0
   14.4958    0.2758    8.3896 H   0  0  0  0  0  0  0  0  0  0  0  0
   18.1387    0.2450   10.4395 H   0  0  0  0  0  0  0  0  0  0  0  0
   19.2143   -1.9609    9.9705 H   0  0  0  0  0  0  0  0  0  0  0  0
   18.9324   -2.9785    7.7379 H   0  0  0  0  0  0  0  0  0  0  0  0
   17.4180   -2.4711    1.1962 H   0  0  0  0  0  0  0  0  0  0  0  0
   18.4163   -3.6351   -0.7400 H   0  0  0  0  0  0  0  0  0  0  0  0
   20.9553   -5.8719    1.8993 H   0  0  0  0  0  0  0  0  0  0  0  0
  1  2  1  0
  2 25  1  0
  2  3  2  0
  3  4  1  0
  3 21  1  0
  4  5  1  0
  4 26  1  0
  5  6  2  0
  5  7  1  0
  7  8  1  0
  7 27  1  0
  8 20  1  0
  8  9  2  0
  9 10  1  0
  9 17  1  0
 10 11  1  0
 11 16  1  0
 11 12  2  0
 12 13  1  0
 12 28  1  0
 13 14  2  0
 13 29  1  0
 14 15  1  0
 14 30  1  0
 15 16  2  0
 15 31  1  0
 16 32  1  0
 17 18  2  0
 18 19  1  0
 18 33  1  0
 19 20  2  0
 19 34  1  0
 20 35  1  0
 21 22  2  0
 21 36  1  0
 22 23  1  0
 22 37  1  0
 23 24  1  0
 23 25  2  0
 25 38  1  0
M  END
