11d
     RDKit          3D

 47 49  0  0  1  0  0  0  0  0999 V2000
   19.9616   -4.9236    4.0661 F   0  0  0  0  0  0  0  0  0  0  0  0
   19.6008   -4.4914    2.8427 C   0  0  0  0  0  0  0  0  0  0  0  0
   18.6137   -3.4982    2.6585 C   0  0  0  0  0  0  0  0  0  0  0  0
   17.9815   -2.7756    3.7009 N   0  0  0  0  0  0  0  0  0  0  0  0
   18.4298   -2.5080    4.9363 C   0  0  0  0  0  0  0  0  0  0  0  0
   19.5362   -2.8147    5.3601 O   0  0  0  0  0  0  0  0  0  0  0  0
   17.5376   -1.8186    5.6561 N   0  0  0  0  0  0  0  0  0  0  0  0
   17.7146   -1.3344    6.9739 C   0  0  0  0  0  0  0  0  0  0  0  0
   17.0956   -0.1290    7.3503 C   0  0  0  0  0  0  0  0  0  0  0  0
   16.2820    0.5297    6.4477 O   0  0  0  0  0  0  0  0  0  0  0  0
   15.3782    1.4935    6.8306 C   0  0  0  0  0  0  0  0  0  0  0  0
   15.2986    2.7237    6.1399 C   0  0  0  0  0  0  0  0  0  0  0  0
   16.2276    3.0487    4.9759 C   0  0  2  0  0  0  0  0  0  0  0  0
   16.0455    2.0826    3.8009 C   0  0  1  0  0  0  0  0  0  0  0  0
   17.6915    3.1174    5.4181 C   0  0  1  0  0  0  0  0  0  0  0  0
   14.3336    3.6689    6.5406 C   0  0  0  0  0  0  0  0  0  0  0  0
   13.4566    3.3993    7.6007 C   0  0  0  0  0  0  0  0  0  0  0  0
   13.5230    2.1724    8.2606 C   0  0  0  0  0  0  0  0  0  0  0  0
   14.4659    1.2227    7.8646 C   0  0  0  0  0  0  0  0  0  0  0  0
   17.2708    0.4204    8.5715 N   0  0  0  0  0  0  0  0  0  0  0  0
   18.0230   -0.2303    9.4759 C   0  0  0  0  0  0  0  0  0  0  0  0
   18.6280   -1.4649    9.2164 C   0  0  0  0  0  0  0  0  0  0  0  0
   18.4695   -2.0249    7.9443 C   0  0  0  0  0  0  0  0  0  0  0  0
   18.1816   -3.2183    1.3551 C   0  0  0  0  0  0  0  0  0  0  0  0
   18.7536   -3.8730    0.2544 C   0  0  0  0  0  0  0  0  0  0  0  0
   19.7535   -4.8339    0.4446 C   0  0  0  0  0  0  0  0  0  0  0  0
   20.2643   -5.5082   -0.6083 F   0  0  0  0  0  0  0  0  0  0  0  0
   20.1808   -5.1322    1.7403 C   0  0  0  0  0  0  0  0  0  0  0  0
   17.1138   -2.3320    3.4505 H   0  0  0  0  0  0  0  0  0  0  0  0
   16.7221   -1.4843    5.1661 H   0  0  0  0  0  0  0  0  0  0  0  0
   15.9593    4.0405    4.6083 H   0  0  0  0  0  0  0  0  0  0  0  0
   15.0062    2.0660    3.4682 H   0  0  0  0  0  0  0  0  0  0  0  0
   16.6463    2.3936    2.9447 H   0  0  0  0  0  0  0  0  0  0  0  0
   16.3346    1.0596    4.0440 H   0  0  0  0  0  0  0  0  0  0  0  0
   17.8191    3.8325    6.2326 H   0  0  0  0  0  0  0  0  0  0  0  0
   18.0646    2.1528    5.7612 H   0  0  0  0  0  0  0  0  0  0  0  0
   18.3321    3.4387    4.5951 H   0  0  0  0  0  0  0  0  0  0  0  0
   14.2573    4.6144    6.0243 H   0  0  0  0  0  0  0  0  0  0  0  0
   12.7210    4.1324    7.8981 H   0  0  0  0  0  0  0  0  0  0  0  0
   12.8419    1.9501    9.0653 H   0  0  0  0  0  0  0  0  0  0  0  0
   14.4820    0.2714    8.3693 H   0  0  0  0  0  0  0  0  0  0  0  0
   18.1333    0.2369   10.4408 H   0  0  0  0  0  0  0  0  0  0  0  0
   19.2052   -1.9672    9.9789 H   0  0  0  0  0  0  0  0  0  0  0  0
   18.9309   -2.9784    7.7317 H   0  0  0  0  0  0  0  0  0  0  0  0
   17.4139   -2.4793    1.1871 H   0  0  0  0  0  0  0  0  0  0  0  0
   18.4046   -3.6532   -0.7441 H   0  0  0  0  0  0  0  0  0  0  0  0
   20.9206   -5.9025    1.8915 H   0  0  0  0  0  0  0  0  0  0  0  0
  1  2  1  0
  2 28  1  0
  2  3  2  0
  3  4  1  0
  3 24  1  0
  4  5  1  0
  4 29  1  0
  5  6  2  0
  5  7  1  0
  7  8  1  0
  7 30  1  0
  8 23  1  0
  8  9  2  0
  9 10  1  0
  9 20  1  0
 10 11  1  0
 11 19  1  0
 11 12  2  0
 12 13  1  0
 12 16  1  0
 13 14  1  0
 13 15  1  0
 13 31  1  6
 14 32  1  6
 14 33  1  0
 14 34  1  0
 15 35  1  1
 15 36  1  0
 15 37  1  0
 16 17  2  0
 16 38  1  0
 17 18  1  0
 17 39  1  0
 18 19  2  0
 18 40  1  0
 19 41  1  0
 20 21  2  0
 21 22  1  0
 21 42  1  0
 22 23  2  0
 22 43  1  0
 23 44  1  0
 24 25  2  0
 24 45  1  0
 25 26  1  0
 25 46  1  0
 26 27  1  0
 26 28  2  0
 28 47  1  0
M  END
