14
     RDKit          3D

 54 56  0  0  1  0  0  0  0  0999 V2000
   19.5229   -2.9074    5.3646 O   0  0  0  0  0  0  0  0  0  0  0  0
   18.4316   -2.5410    4.9399 C   0  0  0  0  0  0  0  0  0  0  0  0
   17.5544   -1.8284    5.6550 N   0  0  0  0  0  0  0  0  0  0  0  0
   17.7315   -1.3448    6.9745 C   0  0  0  0  0  0  0  0  0  0  0  0
   17.1064   -0.1533    7.3718 C   0  0  0  0  0  0  0  0  0  0  0  0
   16.2801    0.5299    6.4923 N   0  0  0  0  0  0  0  0  0  0  0  0
   15.3611    1.5123    6.8272 C   0  0  0  0  0  0  0  0  0  0  0  0
   15.2923    2.7343    6.1217 C   0  0  0  0  0  0  0  0  0  0  0  0
   16.2412    3.0520    4.9447 C   0  0  2  0  0  0  0  0  0  0  0  0
   17.7029    3.1043    5.4244 C   0  0  1  0  0  0  0  0  0  0  0  0
   15.9518    4.4201    4.2982 C   0  0  1  0  0  0  0  0  0  0  0  0
   16.0920    2.0140    3.8140 C   0  0  1  0  0  0  0  0  0  0  0  0
   14.3231    3.6690    6.5439 C   0  0  0  0  0  0  0  0  0  0  0  0
   13.4555    3.3947    7.6056 C   0  0  0  0  0  0  0  0  0  0  0  0
   13.5203    2.1744    8.2684 C   0  0  0  0  0  0  0  0  0  0  0  0
   14.4650    1.2329    7.8702 C   0  0  0  0  0  0  0  0  0  0  0  0
   17.2628    0.3810    8.5938 N   0  0  0  0  0  0  0  0  0  0  0  0
   18.0322   -0.2466    9.4884 C   0  0  0  0  0  0  0  0  0  0  0  0
   18.6427   -1.4751    9.2190 C   0  0  0  0  0  0  0  0  0  0  0  0
   18.4857   -2.0353    7.9430 C   0  0  0  0  0  0  0  0  0  0  0  0
   17.9819   -2.7756    3.6983 N   0  0  0  0  0  0  0  0  0  0  0  0
   18.6127   -3.4904    2.6580 C   0  0  0  0  0  0  0  0  0  0  0  0
   19.6153   -4.4588    2.8586 C   0  0  0  0  0  0  0  0  0  0  0  0
   20.1791   -5.1290    1.7626 C   0  0  0  0  0  0  0  0  0  0  0  0
   19.7295   -4.8704    0.4609 C   0  0  0  0  0  0  0  0  0  0  0  0
   20.2353   -5.6941   -0.7041 C   0  0  1  0  0  0  0  0  0  0  0  0
   18.7443   -3.8910    0.2625 C   0  0  0  0  0  0  0  0  0  0  0  0
   18.1782   -3.2197    1.3556 C   0  0  0  0  0  0  0  0  0  0  0  0
   16.7366   -1.5052    5.1621 H   0  0  0  0  0  0  0  0  0  0  0  0
   16.5674    0.5037    5.5309 H   0  0  0  0  0  0  0  0  0  0  0  0
   18.0768    2.1560    5.7990 H   0  0  0  0  0  0  0  0  0  0  0  0
   18.3683    3.4038    4.6130 H   0  0  0  0  0  0  0  0  0  0  0  0
   17.8269    3.8242    6.2340 H   0  0  0  0  0  0  0  0  0  0  0  0
   14.9360    4.4815    3.9086 H   0  0  0  0  0  0  0  0  0  0  0  0
   16.0809    5.2394    5.0047 H   0  0  0  0  0  0  0  0  0  0  0  0
   16.6254    4.6207    3.4647 H   0  0  0  0  0  0  0  0  0  0  0  0
   15.0467    1.9196    3.5129 H   0  0  0  0  0  0  0  0  0  0  0  0
   16.6560    2.3108    2.9267 H   0  0  0  0  0  0  0  0  0  0  0  0
   16.4557    1.0189    4.0589 H   0  0  0  0  0  0  0  0  0  0  0  0
   14.2097    4.6260    6.0653 H   0  0  0  0  0  0  0  0  0  0  0  0
   12.7319    4.1356    7.9094 H   0  0  0  0  0  0  0  0  0  0  0  0
   12.8344    1.9584    9.0741 H   0  0  0  0  0  0  0  0  0  0  0  0
   14.5018    0.2882    8.3864 H   0  0  0  0  0  0  0  0  0  0  0  0
   18.1184    0.2172   10.4603 H   0  0  0  0  0  0  0  0  0  0  0  0
   19.2275   -1.9727    9.9763 H   0  0  0  0  0  0  0  0  0  0  0  0
   18.9464   -2.9893    7.7328 H   0  0  0  0  0  0  0  0  0  0  0  0
   17.1135   -2.3305    3.4426 H   0  0  0  0  0  0  0  0  0  0  0  0
   19.9740   -4.7177    3.8441 H   0  0  0  0  0  0  0  0  0  0  0  0
   20.9258   -5.8907    1.9324 H   0  0  0  0  0  0  0  0  0  0  0  0
   20.5275   -6.6966   -0.3868 H   0  0  0  0  0  0  0  0  0  0  0  0
   19.4690   -5.8072   -1.4711 H   0  0  0  0  0  0  0  0  0  0  0  0
   21.1004   -5.2175   -1.1607 H   0  0  0  0  0  0  0  0  0  0  0  0
   18.3805   -3.6817   -0.7306 H   0  0  0  0  0  0  0  0  0  0  0  0
   17.3957   -2.4959    1.1843 H   0  0  0  0  0  0  0  0  0  0  0  0
  1  2  2  0
  2  3  1  0
  2 21  1  0
  3  4  1  0
  3 29  1  0
  4 20  1  0
  4  5  2  0
  5  6  1  0
  5 17  1  0
  6  7  1  0
  6 30  1  0
  7 16  1  0
  7  8  2  0
  9  8  1  1
  8 13  1  0
  9 10  1  0
  9 11  1  0
  9 12  1  0
 10 31  1  1
 10 32  1  0
 10 33  1  0
 11 34  1  6
 11 35  1  0
 11 36  1  0
 12 37  1  6
 12 38  1  0
 12 39  1  0
 13 14  2  0
 13 40  1  0
 14 15  1  0
 14 41  1  0
 15 16  2  0
 15 42  1  0
 16 43  1  0
 17 18  2  0
 18 19  1  0
 18 44  1  0
 19 20  2  0
 19 45  1  0
 20 46  1  0
 21 22  1  0
 21 47  1  0
 22 28  1  0
 22 23  2  0
 23 24  1  0
 23 48  1  0
 24 25  2  0
 24 49  1  0
 25 26  1  0
 25 27  1  0
 26 50  1  1
 26 51  1  0
 26 52  1  0
 27 28  2  0
 27 53  1  0
 28 54  1  0
M  END
