16neu
     RDKit          3D

 35 38  0  0  1  0  0  0  0  0999 V2000
  -31.0114   15.5779   14.7787 N   0  0  0  0  0  0  0  0  0  0  0  0
  -30.2635   16.6115   14.2111 N   0  0  0  0  0  0  0  0  0  0  0  0
  -30.7949   17.7703   14.7797 C   0  0  0  0  0  0  0  0  0  0  0  0
  -31.8278   17.3381   15.6333 C   0  0  0  0  0  0  0  0  0  0  0  0
  -31.9121   15.9810   15.6453 N   0  0  0  0  0  0  0  0  0  0  0  0
  -32.5974   18.2935   16.3108 C   0  0  0  0  0  0  0  0  0  0  0  0
  -32.4238   19.6375   16.1766 N   0  0  0  0  0  0  0  0  0  0  0  0
  -31.4342   20.0219   15.3651 C   0  0  0  0  0  0  0  0  0  0  0  0
  -30.5611   19.1684   14.6421 C   0  0  0  0  0  0  0  0  0  0  0  0
  -29.6500   19.9912   13.9115 C   0  0  0  0  0  0  0  0  0  0  0  0
  -30.0090   21.3003   14.1892 C   0  0  0  0  0  0  0  0  0  0  0  0
  -31.0825   21.3143   15.0499 N   0  0  0  0  0  0  0  0  0  0  0  0
  -29.1868   16.4392   13.2291 C   0  0  1  0  0  0  0  0  0  0  0  0
  -29.4868   17.1412   11.8818 C   0  0  2  0  0  0  0  0  0  0  0  0
  -28.3050   17.0076   10.8955 C   0  0  2  0  0  0  0  0  0  0  0  0
  -26.9527   17.4340   11.5142 C   0  0  1  0  0  0  0  0  0  0  0  0
  -26.6891   16.6909   12.8364 C   0  0  2  0  0  0  0  0  0  0  0  0
  -27.8410   16.8764   13.8354 C   0  0  2  0  0  0  0  0  0  0  0  0
  -25.8178   17.2231   10.6413 N   0  0  0  0  0  0  0  0  0  0  0  0
  -33.3822   17.9844   16.9814 H   0  0  0  0  0  0  0  0  0  0  0  0
  -28.8234   19.7154   13.2683 H   0  0  0  0  0  0  0  0  0  0  0  0
  -29.5952   22.2341   13.8378 H   0  0  0  0  0  0  0  0  0  0  0  0
  -31.5125   22.1665   15.3882 H   0  0  0  0  0  0  0  0  0  0  0  0
  -29.0811   15.3810   12.9915 H   0  0  0  0  0  0  0  0  0  0  0  0
  -29.7209   18.1936   12.0149 H   0  0  0  0  0  0  0  0  0  0  0  0
  -30.3791   16.7023   11.4322 H   0  0  0  0  0  0  0  0  0  0  0  0
  -28.5199   17.5955   10.0017 H   0  0  0  0  0  0  0  0  0  0  0  0
  -28.2355   15.9720   10.5623 H   0  0  0  0  0  0  0  0  0  0  0  0
  -27.0202   18.5053   11.7277 H   0  0  0  0  0  0  0  0  0  0  0  0
  -25.7614   17.0249   13.2961 H   0  0  0  0  0  0  0  0  0  0  0  0
  -26.5552   15.6278   12.6328 H   0  0  0  0  0  0  0  0  0  0  0  0
  -27.6330   16.2931   14.7332 H   0  0  0  0  0  0  0  0  0  0  0  0
  -27.8790   17.9153   14.1539 H   0  0  0  0  0  0  0  0  0  0  0  0
  -25.6560   16.2728   10.3521 H   0  0  0  0  0  0  0  0  0  0  0  0
  -25.7813   17.8408    9.8286 H   0  0  0  0  0  0  0  0  0  0  0  0
  1  2  1  0
  1  5  2  0
  2  3  1  0
  2 13  1  0
  3  4  2  0
  3  9  1  0
  4  5  1  0
  4  6  1  0
  6  7  2  0
  6 20  1  0
  7  8  1  0
  8  9  2  0
  8 12  1  0
  9 10  1  0
 10 11  2  0
 10 21  1  0
 11 12  1  0
 11 22  1  0
 12 23  1  0
 13 14  1  0
 13 18  1  0
 13 24  1  6
 14 15  1  0
 14 25  1  1
 14 26  1  0
 15 16  1  0
 15 27  1  6
 15 28  1  0
 16 17  1  0
 16 19  1  0
 16 29  1  1
 17 18  1  0
 17 30  1  1
 17 31  1  0
 18 32  1  1
 18 33  1  0
 19 34  1  0
 19 35  1  0
M  END
