lig 68, deprot
     RDKit          3D

 60 65  0  0  1  0  0  0  0  0999 V2000
   15.3890  134.4744   -3.4827 C   0  0  0  0  0  0  0  0  0  0  0  0
   15.7580  135.8421   -3.7591 C   0  0  0  0  0  0  0  0  0  0  0  0
   14.0710  133.9790   -3.8402 C   0  0  0  0  0  0  0  0  0  0  0  0
   16.2570  133.5600   -2.8648 C   0  0  0  0  0  0  0  0  0  0  0  0
   17.0670  136.3575   -3.4346 N   0  0  0  0  0  0  0  0  0  0  0  0
   14.7970  136.6915   -4.3849 C   0  0  0  0  0  0  0  0  0  0  0  0
   13.7040  132.6183   -3.5719 C   0  0  0  0  0  0  0  0  0  0  0  0
   13.1470  134.8554   -4.4611 C   0  0  0  0  0  0  0  0  0  0  0  0
   15.9200  132.1993   -2.5954 C   0  0  0  0  0  0  0  0  0  0  0  0
   17.4420  137.0116   -2.2443 C   0  0  0  0  0  0  0  0  0  0  0  0
   18.2000  136.2366   -4.3365 C   0  0  1  0  0  0  0  0  0  0  0  0
   13.5050  136.1992   -4.7284 C   0  0  0  0  0  0  0  0  0  0  0  0
   14.6310  131.7249   -2.9550 C   0  0  0  0  0  0  0  0  0  0  0  0
   16.8400  131.2789   -2.0205 O   0  0  0  0  0  0  0  0  0  0  0  0
   18.9740  137.2256   -2.2825 C   0  0  2  0  0  0  0  0  0  0  0  0
   16.7320  137.2636   -1.2895 O   0  0  0  0  0  0  0  0  0  0  0  0
   19.3920  136.2445   -3.3995 C   0  0  1  0  0  0  0  0  0  0  0  0
   18.2280  131.6148   -2.0649 C   0  0  0  0  0  0  0  0  0  0  0  0
   19.6300  136.9319   -0.9732 N   0  0  0  0  0  0  0  0  0  0  0  0
   19.0130  131.8046   -3.2781 C   0  0  0  0  0  0  0  0  0  0  0  0
   18.8600  131.7721   -0.7980 C   0  0  0  0  0  0  0  0  0  0  0  0
   19.3470  135.6196   -0.3319 C   0  0  1  0  0  0  0  0  0  0  0  0
   20.3820  132.1567   -3.1584 C   0  0  0  0  0  0  0  0  0  0  0  0
   18.4240  131.6443   -4.5879 C   0  0  0  0  0  0  0  0  0  0  0  0
   20.2480  132.1182   -0.7004 C   0  0  0  0  0  0  0  0  0  0  0  0
   20.1100  135.4339    0.9673 C   0  0  1  0  0  0  0  0  0  0  0  0
   20.9900  132.3140   -1.8896 C   0  0  0  0  0  0  0  0  0  0  0  0
   17.8870  131.5093   -5.6068 N   0  0  0  0  0  0  0  0  0  0  0  0
   20.9680  132.2865    0.6175 C   0  0  1  0  0  0  0  0  0  0  0  0
   19.7910  134.2377    1.8095 C   0  0  0  0  0  0  0  0  0  0  0  0
   20.1570  132.9165    1.6558 N   0  0  0  0  0  0  0  0  0  0  0  0
   19.0330  134.2298    2.9555 C   0  0  0  0  0  0  0  0  0  0  0  0
   19.6090  132.2136    2.7025 C   0  0  0  0  0  0  0  0  0  0  0  0
   18.9140  132.9864    3.5168 N   0  0  0  0  0  0  0  0  0  0  0  0
   17.2456  133.8732   -2.5631 H   0  0  0  0  0  0  0  0  0  0  0  0
   15.0458  137.7196   -4.6031 H   0  0  0  0  0  0  0  0  0  0  0  0
   12.7194  132.2622   -3.8369 H   0  0  0  0  0  0  0  0  0  0  0  0
   12.1642  134.4996   -4.7329 H   0  0  0  0  0  0  0  0  0  0  0  0
   18.1177  135.2984   -4.9048 H   0  0  0  0  0  0  0  0  0  0  0  0
   18.2066  137.0878   -5.0331 H   0  0  0  0  0  0  0  0  0  0  0  0
   12.7853  136.8530   -5.1985 H   0  0  0  0  0  0  0  0  0  0  0  0
   14.3489  130.6997   -2.7662 H   0  0  0  0  0  0  0  0  0  0  0  0
   19.2940  138.2657   -2.4435 H   0  0  0  0  0  0  0  0  0  0  0  0
   19.5649  135.2275   -3.0176 H   0  0  0  0  0  0  0  0  0  0  0  0
   20.2839  136.5883   -3.9437 H   0  0  0  0  0  0  0  0  0  0  0  0
   21.1400  136.9729   -1.1426 C   0  0  2  0  0  0  0  0  0  0  0  0
   18.2725  135.5448   -0.1084 H   0  0  0  0  0  0  0  0  0  0  0  0
   19.6368  134.8075   -1.0150 H   0  0  0  0  0  0  0  0  0  0  0  0
   21.1856  135.3512    0.7522 H   0  0  0  0  0  0  0  0  0  0  0  0
   19.9327  136.2987    1.6235 H   0  0  0  0  0  0  0  0  0  0  0  0
   22.0336  132.5869   -1.8362 H   0  0  0  0  0  0  0  0  0  0  0  0
   21.2748  131.3004    0.9962 H   0  0  0  0  0  0  0  0  0  0  0  0
   21.8580  132.9162    0.4713 H   0  0  0  0  0  0  0  0  0  0  0  0
   18.6018  135.1489    3.3240 H   0  0  0  0  0  0  0  0  0  0  0  0
   19.7728  131.1491    2.7827 H   0  0  0  0  0  0  0  0  0  0  0  0
   18.2925  131.6303    0.1099 H   0  0  0  0  0  0  0  0  0  0  0  0
   20.9797  132.3098   -4.0448 H   0  0  0  0  0  0  0  0  0  0  0  0
   21.4303  137.9227   -1.6153 H   0  0  0  0  0  0  0  0  0  0  0  0
   21.4605  136.1341   -1.7780 H   0  0  0  0  0  0  0  0  0  0  0  0
   21.6218  136.8914   -0.1571 H   0  0  0  0  0  0  0  0  0  0  0  0
  1  2  2  0
  1  3  1  0
  1  4  1  0
  2  5  1  0
  2  6  1  0
  3  7  1  0
  3  8  2  0
  4  9  2  0
  4 35  1  0
  5 10  1  0
  5 11  1  0
  6 12  2  0
  6 36  1  0
  7 13  2  0
  7 37  1  0
  8 12  1  0
  8 38  1  0
  9 13  1  0
  9 14  1  0
 10 15  1  0
 10 16  2  0
 11 17  1  0
 11 39  1  6
 11 40  1  0
 12 41  1  0
 13 42  1  0
 14 18  1  0
 15 17  1  0
 15 19  1  0
 15 43  1  6
 17 44  1  1
 17 45  1  0
 18 20  1  0
 18 21  2  0
 19 22  1  0
 19 46  1  0
 20 23  2  0
 20 24  1  0
 21 25  1  0
 21 56  1  0
 22 26  1  0
 22 47  1  1
 22 48  1  0
 23 27  1  0
 23 57  1  0
 24 28  3  0
 25 27  2  0
 25 29  1  0
 26 30  1  0
 26 49  1  6
 26 50  1  0
 27 51  1  0
 29 31  1  0
 29 52  1  1
 29 53  1  0
 30 31  1  0
 30 32  2  0
 31 33  1  0
 32 34  1  0
 32 54  1  0
 33 34  2  0
 33 55  1  0
 46 58  1  6
 46 59  1  0
 46 60  1  0
M  END
