lig 2, deprot
     RDKit          3D

 49 52  0  0  1  0  0  0  0  0999 V2000
   18.5610  135.2050   -0.0600 N   0  0  0  0  0  0  0  0  0  0  0  0
   17.2650  135.6440    0.4650 C   0  0  1  0  0  0  0  0  0  0  0  0
   19.7520  135.2070    0.7900 C   0  0  1  0  0  0  0  0  0  0  0  0
   18.9500  135.8920   -1.2990 C   0  0  1  0  0  0  0  0  0  0  0  0
   16.3280  135.0430   -0.5960 C   0  0  1  0  0  0  0  0  0  0  0  0
   19.5950  134.1260    1.8570 C   0  0  0  0  0  0  0  0  0  0  0  0
   17.8720  135.6640   -2.4020 C   0  0  0  0  0  0  0  0  0  0  0  0
   16.5930  135.2440   -2.0230 N   0  0  0  0  0  0  0  0  0  0  0  0
   20.1020  132.8670    1.7040 N   0  0  0  0  0  0  0  0  0  0  0  0
   18.9610  134.2450    3.0400 C   0  0  0  0  0  0  0  0  0  0  0  0
   18.1540  135.8470   -3.5710 O   0  0  0  0  0  0  0  0  0  0  0  0
   15.5650  135.0040   -2.9070 C   0  0  0  0  0  0  0  0  0  0  0  0
   20.8650  132.3200    0.5570 C   0  0  1  0  0  0  0  0  0  0  0  0
   19.8100  132.1530    2.7740 C   0  0  0  0  0  0  0  0  0  0  0  0
   19.0960  132.9550    3.6550 N   0  0  0  0  0  0  0  0  0  0  0  0
   15.0300  133.7270   -2.8320 C   0  0  0  0  0  0  0  0  0  0  0  0
   15.0300  135.9470   -3.8520 C   0  0  0  0  0  0  0  0  0  0  0  0
   20.0510  132.2060   -0.7400 C   0  0  0  0  0  0  0  0  0  0  0  0
   13.9770  133.3250   -3.6540 C   0  0  0  0  0  0  0  0  0  0  0  0
   13.9670  135.5450   -4.6930 C   0  0  0  0  0  0  0  0  0  0  0  0
   20.6160  132.5930   -1.9770 C   0  0  0  0  0  0  0  0  0  0  0  0
   18.7370  131.7180   -0.7350 C   0  0  0  0  0  0  0  0  0  0  0  0
   13.4400  134.2320   -4.5910 C   0  0  0  0  0  0  0  0  0  0  0  0
   13.3840  131.7160   -3.4630 Cl  0  0  0  0  0  0  0  0  0  0  0  0
   19.8810  132.4840   -3.1800 C   0  0  0  0  0  0  0  0  0  0  0  0
   18.0080  131.6100   -1.9240 C   0  0  0  0  0  0  0  0  0  0  0  0
   18.5870  131.9950   -3.1560 C   0  0  0  0  0  0  0  0  0  0  0  0
   17.8950  131.8790   -4.2840 C   0  0  0  0  0  0  0  0  0  0  0  0
   17.2860  131.7730   -5.2800 N   0  0  0  0  0  0  0  0  0  0  0  0
   17.1195  135.2316    1.4743 H   0  0  0  0  0  0  0  0  0  0  0  0
   17.2411  136.7428    0.5110 H   0  0  0  0  0  0  0  0  0  0  0  0
   20.6409  134.9993    0.1762 H   0  0  0  0  0  0  0  0  0  0  0  0
   19.8590  136.1915    1.2689 H   0  0  0  0  0  0  0  0  0  0  0  0
   19.0450  136.9707   -1.1058 H   0  0  0  0  0  0  0  0  0  0  0  0
   19.9142  135.4962   -1.6505 H   0  0  0  0  0  0  0  0  0  0  0  0
   16.3049  133.9486   -0.4871 H   0  0  0  0  0  0  0  0  0  0  0  0
   15.3137  135.4464   -0.4602 H   0  0  0  0  0  0  0  0  0  0  0  0
   18.5012  135.1829    3.3143 H   0  0  0  0  0  0  0  0  0  0  0  0
   21.7243  132.9727    0.3436 H   0  0  0  0  0  0  0  0  0  0  0  0
   21.2241  131.3099    0.8037 H   0  0  0  0  0  0  0  0  0  0  0  0
   20.1283  131.1230    2.8393 H   0  0  0  0  0  0  0  0  0  0  0  0
   15.4285  133.0153   -2.1242 H   0  0  0  0  0  0  0  0  0  0  0  0
   15.4403  136.9443   -3.9110 H   0  0  0  0  0  0  0  0  0  0  0  0
   13.5564  136.2375   -5.4129 H   0  0  0  0  0  0  0  0  0  0  0  0
   21.6240  132.9790   -2.0131 H   0  0  0  0  0  0  0  0  0  0  0  0
   18.2752  131.4198    0.1947 H   0  0  0  0  0  0  0  0  0  0  0  0
   12.6262  133.9273   -5.2323 H   0  0  0  0  0  0  0  0  0  0  0  0
   20.3298  132.7823   -4.1159 H   0  0  0  0  0  0  0  0  0  0  0  0
   16.9969  131.2309   -1.9050 H   0  0  0  0  0  0  0  0  0  0  0  0
  1  2  1  0
  1  3  1  0
  1  4  1  0
  2  5  1  0
  2 30  1  1
  2 31  1  0
  3  6  1  0
  3 32  1  6
  3 33  1  0
  4  7  1  0
  4 34  1  1
  4 35  1  0
  5  8  1  0
  5 36  1  6
  5 37  1  0
  6  9  1  0
  6 10  2  0
  7  8  1  0
  7 11  2  0
  8 12  1  0
  9 13  1  0
  9 14  1  0
 10 15  1  0
 10 38  1  0
 12 16  2  0
 12 17  1  0
 13 18  1  0
 13 39  1  6
 13 40  1  0
 14 15  2  0
 14 41  1  0
 16 19  1  0
 16 42  1  0
 17 20  2  0
 17 43  1  0
 18 21  2  0
 18 22  1  0
 19 23  2  0
 19 24  1  0
 20 23  1  0
 20 44  1  0
 21 25  1  0
 21 45  1  0
 22 26  2  0
 22 46  1  0
 23 47  1  0
 25 27  2  0
 25 48  1  0
 26 27  1  0
 26 49  1  0
 27 28  1  0
 28 29  3  0
M  END
