lig 51 stereo
     RDKit          3D

 57 62  0  0  1  0  0  0  0  0999 V2000
   15.2678  134.4032   -2.9325 C   0  0  0  0  0  0  0  0  0  0  0  0
   15.5351  135.7802   -2.6667 C   0  0  0  0  0  0  0  0  0  0  0  0
   14.1023  134.0136   -3.6542 C   0  0  0  0  0  0  0  0  0  0  0  0
   16.1914  133.4211   -2.4885 C   0  0  0  0  0  0  0  0  0  0  0  0
   16.6834  136.2508   -1.9689 N   0  0  0  0  0  0  0  0  0  0  0  0
   14.6254  136.7359   -3.1760 C   0  0  0  0  0  0  0  0  0  0  0  0
   13.8739  132.6464   -3.8997 C   0  0  0  0  0  0  0  0  0  0  0  0
   13.2165  135.0063   -4.1154 C   0  0  0  0  0  0  0  0  0  0  0  0
   15.9429  132.0572   -2.7740 C   0  0  0  0  0  0  0  0  0  0  0  0
   17.5894  137.2274   -2.5610 C   0  0  2  0  0  0  0  0  0  0  0  0
   16.9498  136.0548   -0.6656 C   0  0  0  0  0  0  0  0  0  0  0  0
   13.4758  136.3629   -3.8859 C   0  0  0  0  0  0  0  0  0  0  0  0
   14.7850  131.6746   -3.4656 C   0  0  0  0  0  0  0  0  0  0  0  0
   16.8144  131.0601   -2.3947 O   0  0  0  0  0  0  0  0  0  0  0  0
   18.7589  137.3294   -1.5766 C   0  0  2  0  0  0  0  0  0  0  0  0
   18.1677  136.8792   -0.2373 C   0  0  2  0  0  0  0  0  0  0  0  0
   18.1497  131.3559   -2.2627 C   0  0  0  0  0  0  0  0  0  0  0  0
   18.9955  131.5385   -3.3849 C   0  0  0  0  0  0  0  0  0  0  0  0
   18.6811  131.4773   -0.9628 C   0  0  0  0  0  0  0  0  0  0  0  0
   19.5597  134.8716    0.3540 C   0  0  2  0  0  0  0  0  0  0  0  0
   20.3538  131.8651   -3.1868 C   0  0  0  0  0  0  0  0  0  0  0  0
   18.4982  131.3970   -4.7466 C   0  0  0  0  0  0  0  0  0  0  0  0
   20.0401  131.8078   -0.7643 C   0  0  0  0  0  0  0  0  0  0  0  0
   19.2109  133.9291    1.4637 C   0  0  0  0  0  0  0  0  0  0  0  0
   20.8740  132.0009   -1.8850 C   0  0  0  0  0  0  0  0  0  0  0  0
   18.1081  131.2863   -5.8309 N   0  0  0  0  0  0  0  0  0  0  0  0
   20.6135  131.9469    0.6403 C   0  0  2  0  0  0  0  0  0  0  0  0
   19.7097  132.6291    1.5528 N   0  0  0  0  0  0  0  0  0  0  0  0
   18.3827  134.0961    2.5547 C   0  0  0  0  0  0  0  0  0  0  0  0
   19.1965  132.1229    2.6830 C   0  0  0  0  0  0  0  0  0  0  0  0
   18.3945  132.9454    3.3405 N   0  0  0  0  0  0  0  0  0  0  0  0
   16.3468  135.3086    0.1035 O   0  0  0  0  0  0  0  0  0  0  0  0
   19.1827  136.2525    0.6443 N   0  0  0  0  0  0  0  0  0  0  0  0
   17.0799  133.6923   -1.9434 H   0  0  0  0  0  0  0  0  0  0  0  0
   14.7991  137.7878   -3.0038 H   0  0  0  0  0  0  0  0  0  0  0  0
   12.9931  132.3362   -4.4423 H   0  0  0  0  0  0  0  0  0  0  0  0
   12.3300  134.7230   -4.6645 H   0  0  0  0  0  0  0  0  0  0  0  0
   17.0862  138.1907   -2.6528 H   0  0  0  0  0  0  0  0  0  0  0  0
   17.9138  136.9160   -3.5550 H   0  0  0  0  0  0  0  0  0  0  0  0
   12.7931  137.1162   -4.2512 H   0  0  0  0  0  0  0  0  0  0  0  0
   14.6019  130.6308   -3.6729 H   0  0  0  0  0  0  0  0  0  0  0  0
   19.1669  138.3403   -1.5365 H   0  0  0  0  0  0  0  0  0  0  0  0
   19.5599  136.6595   -1.8929 H   0  0  0  0  0  0  0  0  0  0  0  0
   17.7535  137.7450    0.2760 H   0  0  0  0  0  0  0  0  0  0  0  0
   18.0240  131.3328   -0.1168 H   0  0  0  0  0  0  0  0  0  0  0  0
   19.1337  134.5102   -0.5829 H   0  0  0  0  0  0  0  0  0  0  0  0
   20.6389  134.8553    0.1999 H   0  0  0  0  0  0  0  0  0  0  0  0
   21.0035  132.0091   -4.0392 H   0  0  0  0  0  0  0  0  0  0  0  0
   21.9182  132.2494   -1.7532 H   0  0  0  0  0  0  0  0  0  0  0  0
   21.5555  132.4960    0.6198 H   0  0  0  0  0  0  0  0  0  0  0  0
   20.8334  130.9525    1.0315 H   0  0  0  0  0  0  0  0  0  0  0  0
   17.7970  134.9600    2.8365 H   0  0  0  0  0  0  0  0  0  0  0  0
   19.4148  131.1249    3.0344 H   0  0  0  0  0  0  0  0  0  0  0  0
   20.4179  137.1239    0.8044 C   0  0  1  0  0  0  0  0  0  0  0  0
   21.1332  136.6246    1.4579 H   0  0  0  0  0  0  0  0  0  0  0  0
   20.8737  137.2918   -0.1714 H   0  0  0  0  0  0  0  0  0  0  0  0
   20.1337  138.0811    1.2417 H   0  0  0  0  0  0  0  0  0  0  0  0
  1  2  2  0
  1  3  1  0
  1  4  1  0
  2  5  1  0
  2  6  1  0
  3  7  1  0
  3  8  2  0
  4  9  2  0
  4 34  1  0
  5 10  1  0
  5 11  1  0
  6 12  2  0
  6 35  1  0
  7 13  2  0
  7 36  1  0
  8 12  1  0
  8 37  1  0
  9 13  1  0
  9 14  1  0
 10 15  1  0
 10 38  1  6
 10 39  1  0
 11 16  1  0
 11 32  2  0
 12 40  1  0
 13 41  1  0
 14 17  1  0
 15 16  1  0
 15 42  1  1
 15 43  1  0
 16 33  1  0
 16 44  1  1
 17 18  2  0
 17 19  1  0
 18 21  1  0
 18 22  1  0
 19 23  2  0
 19 45  1  0
 20 24  1  0
 20 33  1  0
 20 46  1  6
 20 47  1  0
 21 25  2  0
 21 48  1  0
 22 26  3  0
 23 25  1  0
 23 27  1  0
 24 28  1  0
 24 29  2  0
 25 49  1  0
 27 28  1  0
 27 50  1  6
 27 51  1  0
 28 30  1  0
 29 31  1  0
 29 52  1  0
 30 31  2  0
 30 53  1  0
 33 54  1  0
 54 55  1  1
 54 56  1  0
 54 57  1  0
M  END
