19678_cys
     RDKit          3D

 64 66  0  0  1  0  0  0  0  0999 V2000
   11.2347    0.0649   -1.1305 C   0  0  1  0  0  0  0  0  0  0  0  0
   11.9378   -1.1877   -0.6212 C   0  0  0  0  0  0  0  0  0  0  0  0
   11.3587   -2.2721   -0.6459 O   0  0  0  0  0  0  0  0  0  0  0  0
   13.1862   -1.0175   -0.1561 N   0  0  0  0  0  0  0  0  0  0  0  0
   14.1886   -2.0630    0.0707 C   0  0  1  0  0  0  0  0  0  0  0  0
   15.6064   -1.6338   -0.3626 C   0  0  1  0  0  0  0  0  0  0  0  0
   15.6143   -0.9742   -1.7361 C   0  0  0  0  0  0  0  0  0  0  0  0
   15.1291   -1.6852   -2.8538 C   0  0  0  0  0  0  0  0  0  0  0  0
   15.0263   -1.0651   -4.1111 C   0  0  0  0  0  0  0  0  0  0  0  0
   14.5260   -1.7525   -5.1647 F   0  0  0  0  0  0  0  0  0  0  0  0
   15.4433    0.2689   -4.2678 C   0  0  0  0  0  0  0  0  0  0  0  0
   15.9498    0.9807   -3.1620 C   0  0  0  0  0  0  0  0  0  0  0  0
   16.3534    2.2644   -3.3105 F   0  0  0  0  0  0  0  0  0  0  0  0
   16.0376    0.3616   -1.8980 C   0  0  0  0  0  0  0  0  0  0  0  0
   14.0883   -2.6824    1.4833 C   0  0  2  0  0  0  0  0  0  0  0  0
   14.9759   -3.7716    1.6576 O   0  0  0  0  0  0  0  0  0  0  0  0
   12.6536   -3.1428    1.7853 C   0  0  2  0  0  0  0  0  0  0  0  0
   12.5664   -3.8852    3.0535 N   0  0  2  0  0  0  0  0  0  0  0  0
   11.4133   -4.8038    3.1178 C   0  0  1  0  0  0  0  0  0  0  0  0
   11.4707   -5.9434    2.1454 C   0  0  0  0  0  0  0  0  0  0  0  0
   12.5683   -6.6992    1.8236 C   0  0  0  0  0  0  0  0  0  0  0  0
   12.3083   -7.7265    0.8732 C   0  0  0  0  0  0  0  0  0  0  0  0
   13.3404   -8.7070    0.3870 C   0  0  1  0  0  0  0  0  0  0  0  0
   13.4482  -10.0184    1.2111 C   0  0  1  0  0  0  0  0  0  0  0  0
   13.9481   -9.6671    2.6255 C   0  0  1  0  0  0  0  0  0  0  0  0
   12.0703  -10.6998    1.3312 C   0  0  1  0  0  0  0  0  0  0  0  0
   14.4445  -11.0052    0.5677 C   0  0  1  0  0  0  0  0  0  0  0  0
   10.9975   -7.7248    0.4693 C   0  0  0  0  0  0  0  0  0  0  0  0
   10.0754   -6.4644    1.2382 S   0  0  0  0  0  0  0  0  0  0  0  0
   10.9045   -4.9998    4.5180 C   0  0  1  0  0  0  0  0  0  0  0  0
   10.1365   -4.1189    3.5567 C   0  0  1  0  0  0  0  0  0  0  0  0
   13.8782   -2.8377   -0.6316 H   0  0  0  0  0  0  0  0  0  0  0  0
   14.3638   -1.9263    2.2203 H   0  0  0  0  0  0  0  0  0  0  0  0
   10.2408   -0.1760   -1.5092 H   0  0  0  0  0  0  0  0  0  0  0  0
   11.1257    0.7929   -0.3261 H   0  0  0  0  0  0  0  0  0  0  0  0
   11.8059    0.5225   -1.9386 H   0  0  0  0  0  0  0  0  0  0  0  0
   13.4626   -0.0755    0.0802 H   0  0  0  0  0  0  0  0  0  0  0  0
   16.0377   -0.9483    0.3681 H   0  0  0  0  0  0  0  0  0  0  0  0
   16.2734   -2.4948   -0.3870 H   0  0  0  0  0  0  0  0  0  0  0  0
   14.8284   -2.7178   -2.7534 H   0  0  0  0  0  0  0  0  0  0  0  0
   15.3751    0.7465   -5.2340 H   0  0  0  0  0  0  0  0  0  0  0  0
   16.4242    0.9159   -1.0550 H   0  0  0  0  0  0  0  0  0  0  0  0
   15.8526   -3.4906    1.4405 H   0  0  0  0  0  0  0  0  0  0  0  0
   12.2890   -3.7725    0.9725 H   0  0  0  0  0  0  0  0  0  0  0  0
   11.9929   -2.2760    1.8284 H   0  0  0  0  0  0  0  0  0  0  0  0
   12.5101   -3.2140    3.8067 H   0  0  0  0  0  0  0  0  0  0  0  0
   13.5575   -6.5431    2.2287 H   0  0  0  0  0  0  0  0  0  0  0  0
   13.1198   -8.9601   -0.6510 H   0  0  0  0  0  0  0  0  0  0  0  0
   14.3168   -8.2212    0.3550 H   0  0  0  0  0  0  0  0  0  0  0  0
   14.0305  -10.5559    3.2522 H   0  0  0  0  0  0  0  0  0  0  0  0
   14.9318   -9.1970    2.5956 H   0  0  0  0  0  0  0  0  0  0  0  0
   13.2694   -8.9761    3.1270 H   0  0  0  0  0  0  0  0  0  0  0  0
   12.1201  -11.5838    1.9679 H   0  0  0  0  0  0  0  0  0  0  0  0
   11.3299  -10.0263    1.7641 H   0  0  0  0  0  0  0  0  0  0  0  0
   11.6937  -11.0245    0.3611 H   0  0  0  0  0  0  0  0  0  0  0  0
   14.5848  -11.8882    1.1922 H   0  0  0  0  0  0  0  0  0  0  0  0
   14.0995  -11.3553   -0.4054 H   0  0  0  0  0  0  0  0  0  0  0  0
   15.4232  -10.5453    0.4269 H   0  0  0  0  0  0  0  0  0  0  0  0
   10.5188   -8.3861   -0.2382 H   0  0  0  0  0  0  0  0  0  0  0  0
   10.4728   -5.9691    4.7671 H   0  0  0  0  0  0  0  0  0  0  0  0
   11.4479   -4.5094    5.3257 H   0  0  0  0  0  0  0  0  0  0  0  0
   10.1714   -3.0414    3.7178 H   0  0  0  0  0  0  0  0  0  0  0  0
    9.1963   -4.5011    3.1592 H   0  0  0  0  0  0  0  0  0  0  0  0
   13.4151   -4.4195    3.1671 H   0  0  0  0  0  0  0  0  0  0  0  0
  1  2  1  0
  1 34  1  6
  1 35  1  0
  1 36  1  0
  2  3  2  0
  2  4  1  0
  4  5  1  0
  4 37  1  0
  5 32  1  6
  5  6  1  0
  5 15  1  0
  6  7  1  0
  6 38  1  1
  6 39  1  0
  7 14  1  0
  7  8  2  0
  8  9  1  0
  8 40  1  0
  9 10  1  0
  9 11  2  0
 11 12  1  0
 11 41  1  0
 12 13  1  0
 12 14  2  0
 14 42  1  0
 15 33  1  1
 15 16  1  0
 15 17  1  0
 16 43  1  0
 17 18  1  0
 17 44  1  6
 17 45  1  0
 18 19  1  0
 18 46  1  1
 18 64  1  0
 19 31  1  0
 19 20  1  6
 19 30  1  0
 20 29  1  0
 20 21  2  0
 21 22  1  0
 21 47  1  0
 22 23  1  0
 22 28  2  0
 24 23  1  6
 23 48  1  6
 23 49  1  0
 24 25  1  0
 24 26  1  0
 24 27  1  0
 25 50  1  1
 25 51  1  0
 25 52  1  0
 26 53  1  1
 26 54  1  0
 26 55  1  0
 27 56  1  1
 27 57  1  0
 27 58  1  0
 28 29  1  0
 28 59  1  0
 30 31  1  0
 30 60  1  1
 30 61  1  0
 31 62  1  1
 31 63  1  0
M  CHG  1  18   1
M  END
