22319
     RDKit          3D

 63 65  0  0  1  0  0  0  0  0999 V2000
   11.0937    0.0699   -0.7630 C   0  0  1  0  0  0  0  0  0  0  0  0
   11.9749   -1.1727   -0.7150 C   0  0  0  0  0  0  0  0  0  0  0  0
   11.5612   -2.2389   -1.1668 O   0  0  0  0  0  0  0  0  0  0  0  0
   13.1862   -1.0176   -0.1564 N   0  0  0  0  0  0  0  0  0  0  0  0
   14.1886   -2.0630    0.0707 C   0  0  1  0  0  0  0  0  0  0  0  0
   15.6064   -1.6338   -0.3626 C   0  0  1  0  0  0  0  0  0  0  0  0
   15.6143   -0.9742   -1.7361 C   0  0  0  0  0  0  0  0  0  0  0  0
   15.1291   -1.6852   -2.8538 C   0  0  0  0  0  0  0  0  0  0  0  0
   15.0263   -1.0651   -4.1111 C   0  0  0  0  0  0  0  0  0  0  0  0
   14.5261   -1.7526   -5.1647 F   0  0  0  0  0  0  0  0  0  0  0  0
   15.4433    0.2689   -4.2678 C   0  0  0  0  0  0  0  0  0  0  0  0
   15.9498    0.9807   -3.1620 C   0  0  0  0  0  0  0  0  0  0  0  0
   16.3534    2.2644   -3.3104 F   0  0  0  0  0  0  0  0  0  0  0  0
   16.0376    0.3616   -1.8980 C   0  0  0  0  0  0  0  0  0  0  0  0
   14.0883   -2.6824    1.4833 C   0  0  2  0  0  0  0  0  0  0  0  0
   14.9758   -3.7716    1.6580 O   0  0  0  0  0  0  0  0  0  0  0  0
   12.6536   -3.1428    1.7853 C   0  0  2  0  0  0  0  0  0  0  0  0
   12.5664   -3.8852    3.0535 N   0  0  2  0  0  0  0  0  0  0  0  0
   11.4133   -4.8038    3.1178 C   0  0  1  0  0  0  0  0  0  0  0  0
   11.4707   -5.9434    2.1454 C   0  0  0  0  0  0  0  0  0  0  0  0
   12.5683   -6.6992    1.8236 N   0  0  0  0  0  0  0  0  0  0  0  0
   12.3083   -7.7265    0.8732 C   0  0  0  0  0  0  0  0  0  0  0  0
   13.4148   -8.6476    0.4391 C   0  0  1  0  0  0  0  0  0  0  0  0
   13.6773   -9.8648    1.3725 C   0  0  1  0  0  0  0  0  0  0  0  0
   14.9161  -10.6249    0.8595 C   0  0  1  0  0  0  0  0  0  0  0  0
   13.9363   -9.4359    2.8334 C   0  0  1  0  0  0  0  0  0  0  0  0
   12.4700  -10.8233    1.3395 C   0  0  1  0  0  0  0  0  0  0  0  0
   10.9975   -7.7248    0.4693 C   0  0  0  0  0  0  0  0  0  0  0  0
   10.0754   -6.4644    1.2382 S   0  0  0  0  0  0  0  0  0  0  0  0
   10.9045   -4.9998    4.5180 C   0  0  1  0  0  0  0  0  0  0  0  0
   10.1365   -4.1189    3.5567 C   0  0  1  0  0  0  0  0  0  0  0  0
   10.1438   -0.1479   -1.2523 H   0  0  0  0  0  0  0  0  0  0  0  0
   10.8837    0.4258    0.2461 H   0  0  0  0  0  0  0  0  0  0  0  0
   11.5879    0.8680   -1.3175 H   0  0  0  0  0  0  0  0  0  0  0  0
   13.4305   -0.0894    0.1577 H   0  0  0  0  0  0  0  0  0  0  0  0
   13.8782   -2.8378   -0.6315 H   0  0  0  0  0  0  0  0  0  0  0  0
   16.0379   -0.9487    0.3682 H   0  0  0  0  0  0  0  0  0  0  0  0
   16.2734   -2.4947   -0.3876 H   0  0  0  0  0  0  0  0  0  0  0  0
   14.8283   -2.7178   -2.7534 H   0  0  0  0  0  0  0  0  0  0  0  0
   15.3750    0.7465   -5.2340 H   0  0  0  0  0  0  0  0  0  0  0  0
   16.4242    0.9159   -1.0550 H   0  0  0  0  0  0  0  0  0  0  0  0
   14.3635   -1.9263    2.2204 H   0  0  0  0  0  0  0  0  0  0  0  0
   15.8649   -3.4503    1.6280 H   0  0  0  0  0  0  0  0  0  0  0  0
   12.2898   -3.7700    0.9703 H   0  0  0  0  0  0  0  0  0  0  0  0
   11.9970   -2.2737    1.8266 H   0  0  0  0  0  0  0  0  0  0  0  0
   12.5260   -3.2177    3.8110 H   0  0  0  0  0  0  0  0  0  0  0  0
   13.2381   -8.9913   -0.5810 H   0  0  0  0  0  0  0  0  0  0  0  0
   14.3292   -8.0564    0.3738 H   0  0  0  0  0  0  0  0  0  0  0  0
   15.1162  -11.5135    1.4594 H   0  0  0  0  0  0  0  0  0  0  0  0
   14.7823  -10.9507   -0.1728 H   0  0  0  0  0  0  0  0  0  0  0  0
   15.8104  -10.0015    0.8940 H   0  0  0  0  0  0  0  0  0  0  0  0
   14.2022  -10.2918    3.4547 H   0  0  0  0  0  0  0  0  0  0  0  0
   14.7567   -8.7201    2.8961 H   0  0  0  0  0  0  0  0  0  0  0  0
   13.0581   -8.9754    3.2871 H   0  0  0  0  0  0  0  0  0  0  0  0
   12.6460  -11.7042    1.9580 H   0  0  0  0  0  0  0  0  0  0  0  0
   11.5649  -10.3434    1.7110 H   0  0  0  0  0  0  0  0  0  0  0  0
   12.2643  -11.1722    0.3269 H   0  0  0  0  0  0  0  0  0  0  0  0
   10.5188   -8.3846   -0.2392 H   0  0  0  0  0  0  0  0  0  0  0  0
   10.4728   -5.9691    4.7672 H   0  0  0  0  0  0  0  0  0  0  0  0
   11.4479   -4.5094    5.3257 H   0  0  0  0  0  0  0  0  0  0  0  0
   10.1714   -3.0414    3.7178 H   0  0  0  0  0  0  0  0  0  0  0  0
    9.1963   -4.5011    3.1592 H   0  0  0  0  0  0  0  0  0  0  0  0
   13.4138   -4.4242    3.1523 H   0  0  0  0  0  0  0  0  0  0  0  0
  1  2  1  0
  1 32  1  6
  1 33  1  0
  1 34  1  0
  2  3  2  0
  2  4  1  0
  4  5  1  0
  4 35  1  0
  5  6  1  0
  5 15  1  0
  5 36  1  6
  6  7  1  0
  6 37  1  1
  6 38  1  0
  7 14  1  0
  7  8  2  0
  8  9  1  0
  8 39  1  0
  9 10  1  0
  9 11  2  0
 11 12  1  0
 11 40  1  0
 12 13  1  0
 12 14  2  0
 14 41  1  0
 15 16  1  0
 15 17  1  0
 15 42  1  1
 16 43  1  0
 17 18  1  0
 17 44  1  6
 17 45  1  0
 18 19  1  0
 18 46  1  1
 18 63  1  0
 19 31  1  0
 19 20  1  6
 19 30  1  0
 20 29  1  0
 20 21  2  0
 21 22  1  0
 22 23  1  0
 22 28  2  0
 24 23  1  6
 23 47  1  6
 23 48  1  0
 24 25  1  0
 24 26  1  0
 24 27  1  0
 25 49  1  1
 25 50  1  0
 25 51  1  0
 26 52  1  1
 26 53  1  0
 26 54  1  0
 27 55  1  1
 27 56  1  0
 27 57  1  0
 28 29  1  0
 28 58  1  0
 30 31  1  0
 30 59  1  1
 30 60  1  0
 31 61  1  1
 31 62  1  0
M  CHG  1  18   1
M  END
