22320
     RDKit          3D

 63 65  0  0  1  0  0  0  0  0999 V2000
   11.1432    0.0953   -0.8756 C   0  0  1  0  0  0  0  0  0  0  0  0
   12.0093   -1.1557   -0.7887 C   0  0  0  0  0  0  0  0  0  0  0  0
   11.6146   -2.2131   -1.2766 O   0  0  0  0  0  0  0  0  0  0  0  0
   13.1861   -1.0177   -0.1564 N   0  0  0  0  0  0  0  0  0  0  0  0
   14.1886   -2.0630    0.0707 C   0  0  1  0  0  0  0  0  0  0  0  0
   15.6064   -1.6338   -0.3626 C   0  0  1  0  0  0  0  0  0  0  0  0
   15.6143   -0.9742   -1.7361 C   0  0  0  0  0  0  0  0  0  0  0  0
   15.1291   -1.6852   -2.8538 C   0  0  0  0  0  0  0  0  0  0  0  0
   15.0263   -1.0651   -4.1111 C   0  0  0  0  0  0  0  0  0  0  0  0
   14.5261   -1.7526   -5.1647 F   0  0  0  0  0  0  0  0  0  0  0  0
   15.4433    0.2689   -4.2678 C   0  0  0  0  0  0  0  0  0  0  0  0
   15.9498    0.9807   -3.1620 C   0  0  0  0  0  0  0  0  0  0  0  0
   16.3534    2.2644   -3.3105 F   0  0  0  0  0  0  0  0  0  0  0  0
   16.0376    0.3616   -1.8980 C   0  0  0  0  0  0  0  0  0  0  0  0
   14.0883   -2.6824    1.4833 C   0  0  2  0  0  0  0  0  0  0  0  0
   14.9762   -3.7714    1.6577 O   0  0  0  0  0  0  0  0  0  0  0  0
   12.6536   -3.1428    1.7853 C   0  0  2  0  0  0  0  0  0  0  0  0
   12.5664   -3.8852    3.0535 N   0  0  2  0  0  0  0  0  0  0  0  0
   11.4133   -4.8038    3.1178 C   0  0  1  0  0  0  0  0  0  0  0  0
   11.4707   -5.9434    2.1454 C   0  0  0  0  0  0  0  0  0  0  0  0
   10.0754   -6.4644    1.2382 C   0  0  0  0  0  0  0  0  0  0  0  0
   10.9975   -7.7248    0.4693 S   0  0  0  0  0  0  0  0  0  0  0  0
   12.3083   -7.7265    0.8732 C   0  0  0  0  0  0  0  0  0  0  0  0
   13.3231   -8.7108    0.3792 C   0  0  1  0  0  0  0  0  0  0  0  0
   13.3476  -10.0798    1.1116 C   0  0  1  0  0  0  0  0  0  0  0  0
   13.9437   -9.8723    2.5171 C   0  0  1  0  0  0  0  0  0  0  0  0
   11.9153  -10.6299    1.2610 C   0  0  1  0  0  0  0  0  0  0  0  0
   14.2087  -11.1156    0.3595 C   0  0  1  0  0  0  0  0  0  0  0  0
   12.5683   -6.6992    1.8236 N   0  0  0  0  0  0  0  0  0  0  0  0
   10.9045   -4.9998    4.5180 C   0  0  1  0  0  0  0  0  0  0  0  0
   10.1365   -4.1189    3.5567 C   0  0  1  0  0  0  0  0  0  0  0  0
   10.2245   -0.1075   -1.4269 H   0  0  0  0  0  0  0  0  0  0  0  0
   10.8726    0.4400    0.1229 H   0  0  0  0  0  0  0  0  0  0  0  0
   11.6781    0.8961   -1.3868 H   0  0  0  0  0  0  0  0  0  0  0  0
   13.4004   -0.1049    0.2186 H   0  0  0  0  0  0  0  0  0  0  0  0
   13.8783   -2.8378   -0.6315 H   0  0  0  0  0  0  0  0  0  0  0  0
   16.0380   -0.9487    0.3682 H   0  0  0  0  0  0  0  0  0  0  0  0
   16.2734   -2.4947   -0.3876 H   0  0  0  0  0  0  0  0  0  0  0  0
   14.8283   -2.7178   -2.7534 H   0  0  0  0  0  0  0  0  0  0  0  0
   15.3751    0.7465   -5.2340 H   0  0  0  0  0  0  0  0  0  0  0  0
   16.4243    0.9159   -1.0550 H   0  0  0  0  0  0  0  0  0  0  0  0
   14.3634   -1.9261    2.2202 H   0  0  0  0  0  0  0  0  0  0  0  0
   15.8579   -3.4382    1.7364 H   0  0  0  0  0  0  0  0  0  0  0  0
   12.2899   -3.7716    0.9714 H   0  0  0  0  0  0  0  0  0  0  0  0
   11.9926   -2.2765    1.8292 H   0  0  0  0  0  0  0  0  0  0  0  0
   12.5164   -3.2152    3.8080 H   0  0  0  0  0  0  0  0  0  0  0  0
    9.0745   -6.0590    1.2594 H   0  0  0  0  0  0  0  0  0  0  0  0
   13.1171   -8.8726   -0.6796 H   0  0  0  0  0  0  0  0  0  0  0  0
   14.3084   -8.2439    0.4174 H   0  0  0  0  0  0  0  0  0  0  0  0
   13.9599  -10.8031    3.0852 H   0  0  0  0  0  0  0  0  0  0  0  0
   14.9691   -9.5044    2.4654 H   0  0  0  0  0  0  0  0  0  0  0  0
   13.3640   -9.1488    3.0915 H   0  0  0  0  0  0  0  0  0  0  0  0
   11.9064  -11.5640    1.8238 H   0  0  0  0  0  0  0  0  0  0  0  0
   11.2703   -9.9252    1.7870 H   0  0  0  0  0  0  0  0  0  0  0  0
   11.4587  -10.8335    0.2923 H   0  0  0  0  0  0  0  0  0  0  0  0
   14.2877  -12.0467    0.9218 H   0  0  0  0  0  0  0  0  0  0  0  0
   13.7864  -11.3668   -0.6139 H   0  0  0  0  0  0  0  0  0  0  0  0
   15.2215  -10.7454    0.1963 H   0  0  0  0  0  0  0  0  0  0  0  0
   10.4728   -5.9691    4.7671 H   0  0  0  0  0  0  0  0  0  0  0  0
   11.4479   -4.5094    5.3257 H   0  0  0  0  0  0  0  0  0  0  0  0
   10.1714   -3.0414    3.7178 H   0  0  0  0  0  0  0  0  0  0  0  0
    9.1963   -4.5011    3.1592 H   0  0  0  0  0  0  0  0  0  0  0  0
   13.4140   -4.4221    3.1610 H   0  0  0  0  0  0  0  0  0  0  0  0
  1  2  1  0
  1 32  1  6
  1 33  1  0
  1 34  1  0
  2  3  2  0
  2  4  1  0
  4  5  1  0
  4 35  1  0
  5  6  1  0
  5 15  1  0
  5 36  1  6
  6  7  1  0
  6 37  1  1
  6 38  1  0
  7 14  1  0
  7  8  2  0
  8  9  1  0
  8 39  1  0
  9 10  1  0
  9 11  2  0
 11 12  1  0
 11 40  1  0
 12 13  1  0
 12 14  2  0
 14 41  1  0
 15 16  1  0
 15 17  1  0
 15 42  1  1
 16 43  1  0
 17 18  1  0
 17 44  1  6
 17 45  1  0
 18 19  1  0
 18 46  1  1
 18 63  1  0
 19 31  1  0
 19 20  1  6
 19 30  1  0
 20 29  1  0
 20 21  2  0
 21 22  1  0
 21 47  1  0
 22 23  1  0
 23 24  1  0
 23 29  2  0
 25 24  1  6
 24 48  1  6
 24 49  1  0
 25 26  1  0
 25 27  1  0
 25 28  1  0
 26 50  1  1
 26 51  1  0
 26 52  1  0
 27 53  1  1
 27 54  1  0
 27 55  1  0
 28 56  1  1
 28 57  1  0
 28 58  1  0
 30 31  1  0
 30 59  1  1
 30 60  1  0
 31 61  1  1
 31 62  1  0
M  CHG  1  18   1
M  END
