16, 3VHD
     RDKit          3D

 50 52  0  0  1  0  0  0  0  0999 V2000
    9.8294    1.1402   13.6053 C   0  0  0  0  0  0  0  0  0  0  0  0
    9.0979    0.0233   13.1281 C   0  0  0  0  0  0  0  0  0  0  0  0
    9.3122   -1.2502   13.6962 C   0  0  0  0  0  0  0  0  0  0  0  0
   10.2567   -1.4449   14.7266 C   0  0  0  0  0  0  0  0  0  0  0  0
   11.0058   -0.3372   15.2060 C   0  0  0  0  0  0  0  0  0  0  0  0
   10.7651    0.9340   14.6419 C   0  0  0  0  0  0  0  0  0  0  0  0
   12.0227   -0.4577   16.3115 C   0  0  0  0  0  0  0  0  0  0  0  0
   10.4411   -2.8515   15.2776 C   0  0  1  0  0  0  0  0  0  0  0  0
   11.8389   -1.1713   17.2947 O   0  0  0  0  0  0  0  0  0  0  0  0
   13.1517    0.2387   16.1238 N   0  0  0  0  0  0  0  0  0  0  0  0
    8.0827    0.1598   12.0051 C   0  0  1  0  0  0  0  0  0  0  0  0
    9.7011    2.5130   13.0751 C   0  0  0  0  0  0  0  0  0  0  0  0
   10.8436    3.2632   12.7719 C   0  0  0  0  0  0  0  0  0  0  0  0
   10.6285    4.6000   12.4300 C   0  0  0  0  0  0  0  0  0  0  0  0
    9.4040    5.1375   12.3505 N   0  0  0  0  0  0  0  0  0  0  0  0
    8.4070    4.3197   12.6184 C   0  0  0  0  0  0  0  0  0  0  0  0
    8.4728    3.0585   12.9956 N   0  0  0  0  0  0  0  0  0  0  0  0
    7.1613    4.8480   12.5330 N   0  0  0  0  0  0  0  0  0  0  0  0
   14.2925    0.1858   17.0276 C   0  0  2  0  0  0  0  0  0  0  0  0
   15.3654    1.2372   16.6880 C   0  0  2  0  0  0  0  0  0  0  0  0
   15.0512    2.6762   17.1495 C   0  0  2  0  0  0  0  0  0  0  0  0
   14.0731    3.3749   16.3169 N   0  0  0  0  0  0  0  0  0  0  0  0
   14.3634    3.9615   15.1469 C   0  0  0  0  0  0  0  0  0  0  0  0
   13.2772    4.8375   14.5184 C   0  0  2  0  0  0  0  0  0  0  0  0
   15.4489    3.8197   14.5911 O   0  0  0  0  0  0  0  0  0  0  0  0
   13.4396    4.9962   12.9905 C   0  0  2  0  0  0  0  0  0  0  0  0
   11.9700    5.7252   12.1949 S   0  0  0  0  0  0  0  0  0  0  0  0
    8.7440   -2.0939   13.3308 H   0  0  0  0  0  0  0  0  0  0  0  0
   11.3028    1.7903   15.0207 H   0  0  0  0  0  0  0  0  0  0  0  0
   11.4948   -3.1314   15.2877 H   0  0  0  0  0  0  0  0  0  0  0  0
   10.0586   -2.9118   16.2971 H   0  0  0  0  0  0  0  0  0  0  0  0
    9.9098   -3.5906   14.6779 H   0  0  0  0  0  0  0  0  0  0  0  0
   13.2476    0.7557   15.2646 H   0  0  0  0  0  0  0  0  0  0  0  0
    7.7889   -0.8124   11.6091 H   0  0  0  0  0  0  0  0  0  0  0  0
    7.1853    0.6605   12.3700 H   0  0  0  0  0  0  0  0  0  0  0  0
    8.4899    0.7452   11.1805 H   0  0  0  0  0  0  0  0  0  0  0  0
   11.8261    2.8272   12.8342 H   0  0  0  0  0  0  0  0  0  0  0  0
    6.4144    4.3300   12.9637 H   0  0  0  0  0  0  0  0  0  0  0  0
    7.0938    5.8503   12.4793 H   0  0  0  0  0  0  0  0  0  0  0  0
   14.7283   -0.8122   16.9527 H   0  0  0  0  0  0  0  0  0  0  0  0
   13.9631    0.2992   18.0624 H   0  0  0  0  0  0  0  0  0  0  0  0
   15.6116    1.2146   15.6252 H   0  0  0  0  0  0  0  0  0  0  0  0
   16.2822    0.9340   17.1958 H   0  0  0  0  0  0  0  0  0  0  0  0
   15.9758    3.2577   17.1601 H   0  0  0  0  0  0  0  0  0  0  0  0
   14.6957    2.6694   18.1803 H   0  0  0  0  0  0  0  0  0  0  0  0
   13.1634    3.5417   16.7209 H   0  0  0  0  0  0  0  0  0  0  0  0
   13.3034    5.8192   14.9920 H   0  0  0  0  0  0  0  0  0  0  0  0
   12.3073    4.4049   14.7588 H   0  0  0  0  0  0  0  0  0  0  0  0
   13.6612    4.0412   12.5134 H   0  0  0  0  0  0  0  0  0  0  0  0
   14.2941    5.6402   12.7804 H   0  0  0  0  0  0  0  0  0  0  0  0
  1  2  2  0
  1  6  1  0
  1 12  1  0
  2  3  1  0
  2 11  1  0
  3  4  2  0
  3 28  1  0
  4  5  1  0
  4  8  1  0
  5  6  2  0
  5  7  1  0
  6 29  1  0
  7  9  2  0
  7 10  1  0
  8 30  1  1
  8 31  1  0
  8 32  1  0
 10 19  1  0
 10 33  1  0
 11 34  1  6
 11 35  1  0
 11 36  1  0
 12 13  2  0
 12 17  1  0
 13 14  1  0
 13 37  1  0
 14 15  2  0
 14 27  1  0
 15 16  1  0
 16 17  2  0
 16 18  1  0
 18 38  1  0
 18 39  1  0
 19 20  1  0
 19 40  1  1
 19 41  1  0
 20 21  1  0
 20 42  1  6
 20 43  1  0
 21 22  1  0
 21 44  1  1
 21 45  1  0
 22 23  1  0
 22 46  1  0
 23 24  1  0
 23 25  2  0
 24 26  1  0
 24 47  1  1
 24 48  1  0
 26 27  1  0
 26 49  1  6
 26 50  1  0
M  END
