7
     RDKit          3D

 45 48  0  0  1  0  0  0  0  0999 V2000
   10.6863    0.9410   14.6608 C   0  0  0  0  0  0  0  0  0  0  0  0
    9.7702    1.1193   13.6265 C   0  0  0  0  0  0  0  0  0  0  0  0
    9.0962   -0.0154   13.1430 C   0  0  0  0  0  0  0  0  0  0  0  0
    8.0974    0.0771   11.9996 C   0  0  1  0  0  0  0  0  0  0  0  0
    9.3663   -1.2718   13.7045 C   0  0  0  0  0  0  0  0  0  0  0  0
   10.3285   -1.4216   14.7126 C   0  0  0  0  0  0  0  0  0  0  0  0
   11.0489   -0.3124   15.1685 C   0  0  0  0  0  0  0  0  0  0  0  0
   12.1301   -0.4541   16.0406 O   0  0  0  0  0  0  0  0  0  0  0  0
   13.0045    0.6885   16.0908 C   0  0  2  0  0  0  0  0  0  0  0  0
   15.2717    1.7558   16.1871 C   0  0  2  0  0  0  0  0  0  0  0  0
   14.5048    2.9601   15.9491 O   0  0  0  0  0  0  0  0  0  0  0  0
   14.5917    3.5844   14.7131 C   0  0  0  0  0  0  0  0  0  0  0  0
   13.4604    4.2222   14.1780 C   0  0  0  0  0  0  0  0  0  0  0  0
   15.7814    3.6199   13.9762 C   0  0  0  0  0  0  0  0  0  0  0  0
   15.8291    4.2133   12.7162 C   0  0  0  0  0  0  0  0  0  0  0  0
   14.6858    4.7948   12.1746 C   0  0  0  0  0  0  0  0  0  0  0  0
   13.4945    4.8018   12.9009 C   0  0  0  0  0  0  0  0  0  0  0  0
   12.0757    5.6225   12.2008 S   0  0  0  0  0  0  0  0  0  0  0  0
   10.6673    4.5691   12.4594 C   0  0  0  0  0  0  0  0  0  0  0  0
    9.4480    5.1472   12.3566 N   0  0  0  0  0  0  0  0  0  0  0  0
   10.8117    3.2216   12.7678 C   0  0  0  0  0  0  0  0  0  0  0  0
    9.6548    2.5001   13.0712 C   0  0  0  0  0  0  0  0  0  0  0  0
    8.4230    3.0625   12.9818 N   0  0  0  0  0  0  0  0  0  0  0  0
    8.4051    4.3459   12.6031 C   0  0  0  0  0  0  0  0  0  0  0  0
    7.1789    4.9195   12.5229 N   0  0  0  0  0  0  0  0  0  0  0  0
   11.1816    1.8181   15.0425 H   0  0  0  0  0  0  0  0  0  0  0  0
    8.1320   -0.8148   11.3793 H   0  0  0  0  0  0  0  0  0  0  0  0
    7.0862    0.1773   12.3893 H   0  0  0  0  0  0  0  0  0  0  0  0
    8.2956    0.9317   11.3514 H   0  0  0  0  0  0  0  0  0  0  0  0
    8.8549   -2.1436   13.3219 H   0  0  0  0  0  0  0  0  0  0  0  0
   10.5176   -2.4115   15.1074 H   0  0  0  0  0  0  0  0  0  0  0  0
   12.5377    4.2675   14.7349 H   0  0  0  0  0  0  0  0  0  0  0  0
   16.6834    3.2015   14.3847 H   0  0  0  0  0  0  0  0  0  0  0  0
   16.7542    4.2282   12.1616 H   0  0  0  0  0  0  0  0  0  0  0  0
   14.7370    5.2513   11.1946 H   0  0  0  0  0  0  0  0  0  0  0  0
   11.7784    2.7533   12.8146 H   0  0  0  0  0  0  0  0  0  0  0  0
    6.5096    4.3810   13.0373 H   0  0  0  0  0  0  0  0  0  0  0  0
    7.2559    5.9173   12.5653 H   0  0  0  0  0  0  0  0  0  0  0  0
   14.3721    0.6258   16.7619 C   0  0  1  0  0  0  0  0  0  0  0  0
   16.0989    1.9755   16.8638 H   0  0  0  0  0  0  0  0  0  0  0  0
   15.7198    1.3690   15.2696 H   0  0  0  0  0  0  0  0  0  0  0  0
   12.4794    1.5090   16.5854 H   0  0  0  0  0  0  0  0  0  0  0  0
   13.2023    0.9773   15.0538 H   0  0  0  0  0  0  0  0  0  0  0  0
   14.2492    0.7419   17.8391 H   0  0  0  0  0  0  0  0  0  0  0  0
   14.8324   -0.3490   16.6006 H   0  0  0  0  0  0  0  0  0  0  0  0
  1  2  2  0
  1  7  1  0
  1 26  1  0
  2  3  1  0
  2 22  1  0
  3  4  1  0
  3  5  2  0
  4 27  1  6
  4 28  1  0
  4 29  1  0
  5  6  1  0
  5 30  1  0
  6  7  2  0
  6 31  1  0
  7  8  1  0
  8  9  1  0
  9 39  1  0
  9 42  1  1
  9 43  1  0
 10 11  1  0
 10 39  1  0
 10 40  1  1
 10 41  1  0
 11 12  1  0
 12 13  1  0
 12 14  2  0
 13 17  2  0
 13 32  1  0
 14 15  1  0
 14 33  1  0
 15 16  2  0
 15 34  1  0
 16 17  1  0
 16 35  1  0
 17 18  1  0
 18 19  1  0
 19 20  1  0
 19 21  2  0
 20 24  2  0
 21 22  1  0
 21 36  1  0
 22 23  2  0
 23 24  1  0
 24 25  1  0
 25 37  1  0
 25 38  1  0
 39 44  1  1
 39 45  1  0
M  END
