11, 3VHC
     RDKit          3D

 51 54  0  0  1  0  0  0  0  0999 V2000
   10.5607   -2.8969   15.0991 C   0  0  1  0  0  0  0  0  0  0  0  0
   10.3448   -1.4684   14.6186 C   0  0  0  0  0  0  0  0  0  0  0  0
    9.4385   -1.2650   13.5556 C   0  0  0  0  0  0  0  0  0  0  0  0
    9.1945    0.0228   13.0377 C   0  0  0  0  0  0  0  0  0  0  0  0
    8.2200    0.1857   11.8836 C   0  0  1  0  0  0  0  0  0  0  0  0
    9.8621    1.1392   13.5931 C   0  0  0  0  0  0  0  0  0  0  0  0
   10.7529    0.9319   14.6685 C   0  0  0  0  0  0  0  0  0  0  0  0
   11.0192   -0.3539   15.1944 C   0  0  0  0  0  0  0  0  0  0  0  0
   11.9736   -0.4914   16.3597 C   0  0  0  0  0  0  0  0  0  0  0  0
   11.8390   -1.3675   17.2116 O   0  0  0  0  0  0  0  0  0  0  0  0
   13.0087    0.3618   16.3748 N   0  0  0  0  0  0  0  0  0  0  0  0
   14.1061    0.3030   17.3369 C   0  0  2  0  0  0  0  0  0  0  0  0
   14.7995    1.6633   17.5479 C   0  0  2  0  0  0  0  0  0  0  0  0
   15.3153    2.3316   16.2641 C   0  0  2  0  0  0  0  0  0  0  0  0
   14.2221    2.9878   15.6379 O   0  0  0  0  0  0  0  0  0  0  0  0
   14.4241    3.6039   14.4236 C   0  0  0  0  0  0  0  0  0  0  0  0
   13.3327    4.3197   13.8973 C   0  0  0  0  0  0  0  0  0  0  0  0
   15.6227    3.5334   13.6717 C   0  0  0  0  0  0  0  0  0  0  0  0
   15.6982    4.1380   12.4005 C   0  0  0  0  0  0  0  0  0  0  0  0
   14.5766    4.7952   11.8582 C   0  0  0  0  0  0  0  0  0  0  0  0
   13.3829    4.8739   12.6002 C   0  0  0  0  0  0  0  0  0  0  0  0
   11.9569    5.6456   11.8793 S   0  0  0  0  0  0  0  0  0  0  0  0
   10.6203    4.5660   12.3230 C   0  0  0  0  0  0  0  0  0  0  0  0
    9.4259    5.1606   12.4608 N   0  0  0  0  0  0  0  0  0  0  0  0
   10.8109    3.2054   12.5812 C   0  0  0  0  0  0  0  0  0  0  0  0
    9.7076    2.5140   13.0881 C   0  0  0  0  0  0  0  0  0  0  0  0
    8.5113    3.1137   13.2270 N   0  0  0  0  0  0  0  0  0  0  0  0
    8.4507    4.3879   12.8949 C   0  0  0  0  0  0  0  0  0  0  0  0
    7.2400    4.9806   13.0415 N   0  0  0  0  0  0  0  0  0  0  0  0
   11.6233   -3.1334   15.1585 H   0  0  0  0  0  0  0  0  0  0  0  0
   10.1199   -3.0359   16.0869 H   0  0  0  0  0  0  0  0  0  0  0  0
   10.1018   -3.6211   14.4261 H   0  0  0  0  0  0  0  0  0  0  0  0
    8.9234   -2.1127   13.1265 H   0  0  0  0  0  0  0  0  0  0  0  0
    8.6596    0.7854   11.0862 H   0  0  0  0  0  0  0  0  0  0  0  0
    7.9359   -0.7775   11.4593 H   0  0  0  0  0  0  0  0  0  0  0  0
    7.3134    0.6848   12.2280 H   0  0  0  0  0  0  0  0  0  0  0  0
   11.2323    1.8003   15.0971 H   0  0  0  0  0  0  0  0  0  0  0  0
   13.0584    1.0610   15.6488 H   0  0  0  0  0  0  0  0  0  0  0  0
   14.8289   -0.4324   16.9814 H   0  0  0  0  0  0  0  0  0  0  0  0
   13.7468   -0.0627   18.3012 H   0  0  0  0  0  0  0  0  0  0  0  0
   15.6445    1.5041   18.2189 H   0  0  0  0  0  0  0  0  0  0  0  0
   14.1320    2.3476   18.0738 H   0  0  0  0  0  0  0  0  0  0  0  0
   15.7662    1.5814   15.6129 H   0  0  0  0  0  0  0  0  0  0  0  0
   16.0798    3.0698   16.5111 H   0  0  0  0  0  0  0  0  0  0  0  0
   12.4275    4.3913   14.4820 H   0  0  0  0  0  0  0  0  0  0  0  0
   16.4938    3.0138   14.0409 H   0  0  0  0  0  0  0  0  0  0  0  0
   16.6138    4.0799   11.8300 H   0  0  0  0  0  0  0  0  0  0  0  0
   14.6290    5.2320   10.8710 H   0  0  0  0  0  0  0  0  0  0  0  0
   11.7649    2.7157   12.4658 H   0  0  0  0  0  0  0  0  0  0  0  0
    6.4446    4.3841   13.1933 H   0  0  0  0  0  0  0  0  0  0  0  0
    7.1111    5.8869   12.6246 H   0  0  0  0  0  0  0  0  0  0  0  0
  1  2  1  0
  1 30  1  1
  1 31  1  0
  1 32  1  0
  2  3  2  0
  2  8  1  0
  3  4  1  0
  3 33  1  0
  4  5  1  0
  4  6  2  0
  5 34  1  6
  5 35  1  0
  5 36  1  0
  6  7  1  0
  6 26  1  0
  7  8  2  0
  7 37  1  0
  8  9  1  0
  9 10  2  0
  9 11  1  0
 11 12  1  0
 11 38  1  0
 12 13  1  0
 12 39  1  6
 12 40  1  0
 13 14  1  0
 13 41  1  1
 13 42  1  0
 14 15  1  0
 14 43  1  6
 14 44  1  0
 15 16  1  0
 16 17  2  0
 16 18  1  0
 17 21  1  0
 17 45  1  0
 18 19  2  0
 18 46  1  0
 19 20  1  0
 19 47  1  0
 20 21  2  0
 20 48  1  0
 21 22  1  0
 22 23  1  0
 23 24  2  0
 23 25  1  0
 24 28  1  0
 25 26  2  0
 25 49  1  0
 26 27  1  0
 27 28  2  0
 28 29  1  0
 29 50  1  0
 29 51  1  0
M  END
