lig_3B27
     RDKit          3D

 25 26  0  0  1  0  0  0  0  0999 V2000
   13.6993    4.7291   12.8492 C   0  0  1  0  0  0  0  0  0  0  0  0
   12.1938    5.5422   12.2549 S   0  0  0  0  0  0  0  0  0  0  0  0
   10.8156    4.5198   12.6652 C   0  0  0  0  0  0  0  0  0  0  0  0
   11.0553    3.2554   13.1042 N   0  0  0  0  0  0  0  0  0  0  0  0
    9.5897    5.0884   12.5373 N   0  0  0  0  0  0  0  0  0  0  0  0
    8.5588    4.2853   12.8894 C   0  0  0  0  0  0  0  0  0  0  0  0
    7.2827    4.8176   12.8411 N   0  0  0  0  0  0  0  0  0  0  0  0
    8.6637    3.0043   13.3080 N   0  0  0  0  0  0  0  0  0  0  0  0
    9.9361    2.5370   13.3901 C   0  0  0  0  0  0  0  0  0  0  0  0
   10.1186    1.1439   13.8800 C   0  0  0  0  0  0  0  0  0  0  0  0
   10.9380    0.9100   14.9946 C   0  0  0  0  0  0  0  0  0  0  0  0
   11.1331   -0.3791   15.4881 C   0  0  0  0  0  0  0  0  0  0  0  0
   10.5183   -1.4605   14.8650 C   0  0  0  0  0  0  0  0  0  0  0  0
    9.7019   -1.2470   13.7589 C   0  0  0  0  0  0  0  0  0  0  0  0
    9.4917    0.0411   13.2675 C   0  0  0  0  0  0  0  0  0  0  0  0
    8.4638    0.2144   11.8849 Cl  0  0  0  0  0  0  0  0  0  0  0  0
   14.5714    5.3448   12.6317 H   0  0  0  0  0  0  0  0  0  0  0  0
   13.6436    4.5735   13.9255 H   0  0  0  0  0  0  0  0  0  0  0  0
   13.8316    3.7639   12.3673 H   0  0  0  0  0  0  0  0  0  0  0  0
    6.4988    4.2361   13.0985 H   0  0  0  0  0  0  0  0  0  0  0  0
    7.1447    5.7672   12.5141 H   0  0  0  0  0  0  0  0  0  0  0  0
   11.4263    1.7350   15.4923 H   0  0  0  0  0  0  0  0  0  0  0  0
   11.7599   -0.5385   16.3530 H   0  0  0  0  0  0  0  0  0  0  0  0
   10.6683   -2.4630   15.2377 H   0  0  0  0  0  0  0  0  0  0  0  0
    9.2246   -2.0878   13.2808 H   0  0  0  0  0  0  0  0  0  0  0  0
  1  2  1  0
  1 17  1  1
  1 18  1  0
  1 19  1  0
  2  3  1  0
  3  4  1  0
  3  5  2  0
  4  9  2  0
  5  6  1  0
  6  7  1  0
  6  8  2  0
  7 20  1  0
  7 21  1  0
  8  9  1  0
  9 10  1  0
 10 11  2  0
 10 15  1  0
 11 12  1  0
 11 22  1  0
 12 13  2  0
 12 23  1  0
 13 14  1  0
 13 24  1  0
 14 15  2  0
 14 25  1  0
 15 16  1  0
M  END
