9
     RDKit          3D

 51 54  0  0  1  0  0  0  0  0999 V2000
   10.6972    0.9438   14.6723 C   0  0  0  0  0  0  0  0  0  0  0  0
    9.7820    1.1305   13.6326 C   0  0  0  0  0  0  0  0  0  0  0  0
    9.0946    0.0027   13.1414 C   0  0  0  0  0  0  0  0  0  0  0  0
    8.0898    0.0993   12.0054 C   0  0  1  0  0  0  0  0  0  0  0  0
    9.3541   -1.2604   13.6877 C   0  0  0  0  0  0  0  0  0  0  0  0
   10.2969   -1.4217   14.7015 C   0  0  0  0  0  0  0  0  0  0  0  0
   10.9906   -0.3201   15.1920 C   0  0  0  0  0  0  0  0  0  0  0  0
   11.9576   -0.5382   16.1495 O   0  0  0  0  0  0  0  0  0  0  0  0
   12.8466    0.5345   16.4620 C   0  0  2  0  0  0  0  0  0  0  0  0
   14.0581   -0.0428   17.2189 C   0  0  2  0  0  0  0  0  0  0  0  0
   15.5044    2.7084   16.7224 C   0  0  2  0  0  0  0  0  0  0  0  0
   14.3811    3.1108   15.9504 O   0  0  0  0  0  0  0  0  0  0  0  0
   14.5596    3.6729   14.7078 C   0  0  0  0  0  0  0  0  0  0  0  0
   13.4320    4.2725   14.1489 C   0  0  0  0  0  0  0  0  0  0  0  0
   15.7634    3.6667   13.9859 C   0  0  0  0  0  0  0  0  0  0  0  0
   15.8177    4.2483   12.7192 C   0  0  0  0  0  0  0  0  0  0  0  0
   14.6770    4.8301   12.1672 C   0  0  0  0  0  0  0  0  0  0  0  0
   13.4743    4.8374   12.8713 C   0  0  0  0  0  0  0  0  0  0  0  0
   12.0554    5.6320   12.1458 S   0  0  0  0  0  0  0  0  0  0  0  0
   10.6552    4.5793   12.4439 C   0  0  0  0  0  0  0  0  0  0  0  0
    9.4330    5.1507   12.3436 N   0  0  0  0  0  0  0  0  0  0  0  0
   10.8088    3.2370   12.7724 C   0  0  0  0  0  0  0  0  0  0  0  0
    9.6593    2.5125   13.0860 C   0  0  0  0  0  0  0  0  0  0  0  0
    8.4248    3.0694   13.0027 N   0  0  0  0  0  0  0  0  0  0  0  0
    8.3970    4.3476   12.6095 C   0  0  0  0  0  0  0  0  0  0  0  0
    7.1689    4.9151   12.5303 N   0  0  0  0  0  0  0  0  0  0  0  0
   11.2032    1.8116   15.0649 H   0  0  0  0  0  0  0  0  0  0  0  0
    8.1228   -0.7925   11.3836 H   0  0  0  0  0  0  0  0  0  0  0  0
    7.0803    0.1934   12.4021 H   0  0  0  0  0  0  0  0  0  0  0  0
    8.2851    0.9554   11.3611 H   0  0  0  0  0  0  0  0  0  0  0  0
    8.8480   -2.1334   13.3091 H   0  0  0  0  0  0  0  0  0  0  0  0
   10.5073   -2.4080   15.0962 H   0  0  0  0  0  0  0  0  0  0  0  0
   12.3030    1.3201   17.0015 H   0  0  0  0  0  0  0  0  0  0  0  0
   13.2110    0.9798   15.5311 H   0  0  0  0  0  0  0  0  0  0  0  0
   12.5254    4.2883   14.7326 H   0  0  0  0  0  0  0  0  0  0  0  0
   16.6648    3.2203   14.3814 H   0  0  0  0  0  0  0  0  0  0  0  0
   16.7429    4.2504   12.1626 H   0  0  0  0  0  0  0  0  0  0  0  0
   14.7280    5.2809   11.1910 H   0  0  0  0  0  0  0  0  0  0  0  0
   11.7747    2.7702   12.8210 H   0  0  0  0  0  0  0  0  0  0  0  0
    6.5066    4.3818   13.0592 H   0  0  0  0  0  0  0  0  0  0  0  0
    7.2473    5.9132   12.5602 H   0  0  0  0  0  0  0  0  0  0  0  0
   14.6721    0.8047   18.3580 C   0  0  2  0  0  0  0  0  0  0  0  0
   14.8283   -0.2867   16.4864 H   0  0  0  0  0  0  0  0  0  0  0  0
   13.7759   -1.0072   17.6458 H   0  0  0  0  0  0  0  0  0  0  0  0
   14.9571    2.3069   18.1066 C   0  0  2  0  0  0  0  0  0  0  0  0
   16.1882    3.5535   16.8268 H   0  0  0  0  0  0  0  0  0  0  0  0
   16.0519    1.8904   16.2504 H   0  0  0  0  0  0  0  0  0  0  0  0
   15.6055    0.3203   18.6524 H   0  0  0  0  0  0  0  0  0  0  0  0
   14.0306    0.7237   19.2383 H   0  0  0  0  0  0  0  0  0  0  0  0
   14.0503    2.8812   18.3071 H   0  0  0  0  0  0  0  0  0  0  0  0
   15.6643    2.6412   18.8671 H   0  0  0  0  0  0  0  0  0  0  0  0
  1  2  2  0
  1  7  1  0
  1 27  1  0
  2  3  1  0
  2 23  1  0
  3  4  1  0
  3  5  2  0
  4 28  1  6
  4 29  1  0
  4 30  1  0
  5  6  1  0
  5 31  1  0
  6  7  2  0
  6 32  1  0
  7  8  1  0
  8  9  1  0
  9 10  1  0
  9 33  1  1
  9 34  1  0
 10 42  1  0
 10 43  1  6
 10 44  1  0
 11 12  1  0
 11 45  1  0
 11 46  1  1
 11 47  1  0
 12 13  1  0
 13 14  1  0
 13 15  2  0
 14 18  2  0
 14 35  1  0
 15 16  1  0
 15 36  1  0
 16 17  2  0
 16 37  1  0
 17 18  1  0
 17 38  1  0
 18 19  1  0
 19 20  1  0
 20 21  1  0
 20 22  2  0
 21 25  2  0
 22 23  1  0
 22 39  1  0
 23 24  2  0
 24 25  1  0
 25 26  1  0
 26 40  1  0
 26 41  1  0
 42 45  1  0
 42 48  1  1
 42 49  1  0
 45 50  1  1
 45 51  1  0
M  END
