18 minimized
     RDKit          3D

 56 58  0  0  1  0  0  0  0  0999 V2000
    9.8457    1.1429   13.6128 C   0  0  0  0  0  0  0  0  0  0  0  0
    9.1084    0.0330   13.1236 C   0  0  0  0  0  0  0  0  0  0  0  0
    9.3026   -1.2462   13.6880 C   0  0  0  0  0  0  0  0  0  0  0  0
   10.2305   -1.4556   14.7301 C   0  0  0  0  0  0  0  0  0  0  0  0
   10.9892   -0.3591   15.2162 C   0  0  0  0  0  0  0  0  0  0  0  0
   10.7759    0.9175   14.6495 C   0  0  0  0  0  0  0  0  0  0  0  0
   11.9752   -0.4856   16.3472 C   0  0  0  0  0  0  0  0  0  0  0  0
   10.3874   -2.8608   15.2915 C   0  0  1  0  0  0  0  0  0  0  0  0
   11.7285   -1.1343   17.3619 O   0  0  0  0  0  0  0  0  0  0  0  0
   13.1195    0.1813   16.1607 N   0  0  0  0  0  0  0  0  0  0  0  0
    8.1049    0.1823   11.9921 C   0  0  1  0  0  0  0  0  0  0  0  0
    9.7176    2.5241   13.0979 C   0  0  0  0  0  0  0  0  0  0  0  0
   10.8501    3.2846   12.7780 C   0  0  0  0  0  0  0  0  0  0  0  0
   10.6181    4.6073   12.3905 C   0  0  0  0  0  0  0  0  0  0  0  0
    9.3868    5.1289   12.3068 N   0  0  0  0  0  0  0  0  0  0  0  0
    8.4032    4.3144   12.6279 C   0  0  0  0  0  0  0  0  0  0  0  0
    8.4833    3.0579   13.0147 N   0  0  0  0  0  0  0  0  0  0  0  0
    7.1520    4.8327   12.5558 N   0  0  0  0  0  0  0  0  0  0  0  0
   14.1142    0.4713   17.1829 C   0  0  2  0  0  0  0  0  0  0  0  0
   15.1924    2.6470   18.1730 C   0  0  2  0  0  0  0  0  0  0  0  0
   16.3479    2.7292   15.7768 C   0  0  2  0  0  0  0  0  0  0  0  0
   15.4634    3.8064   15.3333 N   0  0  0  0  0  0  0  0  0  0  0  0
   14.4204    3.6289   14.5077 C   0  0  0  0  0  0  0  0  0  0  0  0
   13.6387    4.8662   14.0671 C   0  0  2  0  0  0  0  0  0  0  0  0
   14.0559    2.5161   14.1264 O   0  0  0  0  0  0  0  0  0  0  0  0
   13.4950    4.9563   12.5314 C   0  0  2  0  0  0  0  0  0  0  0  0
   11.9324    5.7340   12.0173 S   0  0  0  0  0  0  0  0  0  0  0  0
    8.7273   -2.0816   13.3153 H   0  0  0  0  0  0  0  0  0  0  0  0
   11.3255    1.7655   15.0328 H   0  0  0  0  0  0  0  0  0  0  0  0
    9.8531   -3.5954   14.6893 H   0  0  0  0  0  0  0  0  0  0  0  0
   11.4371   -3.1545   15.3177 H   0  0  0  0  0  0  0  0  0  0  0  0
    9.9913   -2.9090   16.3066 H   0  0  0  0  0  0  0  0  0  0  0  0
   13.2355    0.6464   15.2686 H   0  0  0  0  0  0  0  0  0  0  0  0
    7.1999    0.6699   12.3557 H   0  0  0  0  0  0  0  0  0  0  0  0
    8.5182    0.7845   11.1827 H   0  0  0  0  0  0  0  0  0  0  0  0
    7.8239   -0.7852   11.5762 H   0  0  0  0  0  0  0  0  0  0  0  0
   11.8350    2.8535   12.8504 H   0  0  0  0  0  0  0  0  0  0  0  0
   15.6849    4.7438   15.6327 H   0  0  0  0  0  0  0  0  0  0  0  0
   14.0894    5.7790   14.4574 H   0  0  0  0  0  0  0  0  0  0  0  0
   12.6564    4.7896   14.5337 H   0  0  0  0  0  0  0  0  0  0  0  0
   13.5667    3.9824   12.0458 H   0  0  0  0  0  0  0  0  0  0  0  0
   14.3161    5.5478   12.1273 H   0  0  0  0  0  0  0  0  0  0  0  0
   16.4782    2.6001   17.3117 C   0  0  2  0  0  0  0  0  0  0  0  0
   17.3351    2.9111   15.3506 H   0  0  0  0  0  0  0  0  0  0  0  0
   16.0400    1.7706   15.3579 H   0  0  0  0  0  0  0  0  0  0  0  0
   16.9991    1.6644   17.5198 H   0  0  0  0  0  0  0  0  0  0  0  0
   17.1508    3.3788   17.6737 H   0  0  0  0  0  0  0  0  0  0  0  0
   13.9401    1.9348   17.6293 C   0  0  2  0  0  0  0  0  0  0  0  0
   15.0934    0.2904   16.7453 H   0  0  0  0  0  0  0  0  0  0  0  0
   14.0336   -0.2045   18.0367 H   0  0  0  0  0  0  0  0  0  0  0  0
   14.9278    3.6918   18.3401 H   0  0  0  0  0  0  0  0  0  0  0  0
   15.4244    2.2479   19.1614 H   0  0  0  0  0  0  0  0  0  0  0  0
   13.1564    1.9712   18.3878 H   0  0  0  0  0  0  0  0  0  0  0  0
   13.5394    2.5271   16.8112 H   0  0  0  0  0  0  0  0  0  0  0  0
    6.3808    4.1891   12.6023 H   0  0  0  0  0  0  0  0  0  0  0  0
    7.0408    5.7073   12.0717 H   0  0  0  0  0  0  0  0  0  0  0  0
  1  2  2  0
  1  6  1  0
  1 12  1  0
  2  3  1  0
  2 11  1  0
  3  4  2  0
  3 28  1  0
  4  5  1  0
  4  8  1  0
  5  6  2  0
  5  7  1  0
  6 29  1  0
  7  9  2  0
  7 10  1  0
  8 30  1  6
  8 31  1  0
  8 32  1  0
 10 19  1  0
 10 33  1  0
 11 34  1  1
 11 35  1  0
 11 36  1  0
 12 13  1  0
 12 17  2  0
 13 14  2  0
 13 37  1  0
 14 15  1  0
 14 27  1  0
 15 16  2  0
 16 17  1  0
 16 18  1  0
 18 55  1  0
 18 56  1  0
 19 48  1  0
 19 49  1  6
 19 50  1  0
 20 43  1  0
 20 48  1  0
 20 51  1  1
 20 52  1  0
 21 22  1  0
 21 43  1  0
 21 44  1  6
 21 45  1  0
 22 23  1  0
 22 38  1  0
 23 24  1  0
 23 25  2  0
 24 26  1  0
 24 39  1  1
 24 40  1  0
 26 27  1  0
 26 41  1  6
 26 42  1  0
 43 46  1  6
 43 47  1  0
 48 53  1  1
 48 54  1  0
M  END
