17, top conformer
     RDKit          3D

 53 55  0  0  1  0  0  0  0  0999 V2000
    9.8022    1.0863   13.6045 C   0  0  0  0  0  0  0  0  0  0  0  0
    9.0486   -0.0166   13.1700 C   0  0  0  0  0  0  0  0  0  0  0  0
    9.2690   -1.2712   13.7449 C   0  0  0  0  0  0  0  0  0  0  0  0
   10.2279   -1.4604   14.7466 C   0  0  0  0  0  0  0  0  0  0  0  0
   10.9951   -0.3624   15.1949 C   0  0  0  0  0  0  0  0  0  0  0  0
   10.7488    0.8880   14.6127 C   0  0  0  0  0  0  0  0  0  0  0  0
   12.0374   -0.4736   16.2929 C   0  0  0  0  0  0  0  0  0  0  0  0
   10.4139   -2.8734   15.2891 C   0  0  1  0  0  0  0  0  0  0  0  0
   11.9217   -1.2742   17.2186 O   0  0  0  0  0  0  0  0  0  0  0  0
   13.0846    0.3648   16.2141 N   0  0  0  0  0  0  0  0  0  0  0  0
    8.0222    0.1067   12.0529 C   0  0  1  0  0  0  0  0  0  0  0  0
    9.6799    2.4606   13.0431 C   0  0  0  0  0  0  0  0  0  0  0  0
   10.8219    3.1674   12.6571 C   0  0  0  0  0  0  0  0  0  0  0  0
   10.6674    4.5051   12.3009 C   0  0  0  0  0  0  0  0  0  0  0  0
    9.4479    5.0990   12.2668 N   0  0  0  0  0  0  0  0  0  0  0  0
    8.3991    4.3221   12.6140 C   0  0  0  0  0  0  0  0  0  0  0  0
    8.4456    3.0326   13.0135 N   0  0  0  0  0  0  0  0  0  0  0  0
    7.1561    4.9112   12.5732 N   0  0  0  0  0  0  0  0  0  0  0  0
   14.1690    0.4296   17.1901 C   0  0  2  0  0  0  0  0  0  0  0  0
   14.9245    1.7754   17.1767 C   0  0  2  0  0  0  0  0  0  0  0  0
   13.0543    3.6124   16.8215 C   0  0  2  0  0  0  0  0  0  0  0  0
   13.5744    4.2867   15.6270 N   0  0  0  0  0  0  0  0  0  0  0  0
   13.8128    3.7135   14.4413 C   0  0  0  0  0  0  0  0  0  0  0  0
   14.3917    4.5974   13.3367 C   0  0  2  0  0  0  0  0  0  0  0  0
   13.6336    2.5166   14.2365 O   0  0  0  0  0  0  0  0  0  0  0  0
   13.6242    4.5789   11.9938 C   0  0  2  0  0  0  0  0  0  0  0  0
   12.0636    5.5236   11.9162 S   0  0  0  0  0  0  0  0  0  0  0  0
    8.6896   -2.1153   13.4014 H   0  0  0  0  0  0  0  0  0  0  0  0
   11.3007    1.7516   14.9490 H   0  0  0  0  0  0  0  0  0  0  0  0
    9.8948   -3.6243   14.6936 H   0  0  0  0  0  0  0  0  0  0  0  0
   11.4708   -3.1413   15.2918 H   0  0  0  0  0  0  0  0  0  0  0  0
   10.0580   -2.9320   16.3181 H   0  0  0  0  0  0  0  0  0  0  0  0
   13.1798    0.9376   15.3815 H   0  0  0  0  0  0  0  0  0  0  0  0
    7.1194    0.5948   12.4204 H   0  0  0  0  0  0  0  0  0  0  0  0
    8.4200    0.7121   11.2379 H   0  0  0  0  0  0  0  0  0  0  0  0
    7.7578   -0.8614   11.6274 H   0  0  0  0  0  0  0  0  0  0  0  0
   11.7803    2.6841   12.6831 H   0  0  0  0  0  0  0  0  0  0  0  0
   14.8626   -0.3973   17.0215 H   0  0  0  0  0  0  0  0  0  0  0  0
   13.7603    0.2752   18.1931 H   0  0  0  0  0  0  0  0  0  0  0  0
   13.7063    5.2828   15.6951 H   0  0  0  0  0  0  0  0  0  0  0  0
   15.4093    4.2449   13.1735 H   0  0  0  0  0  0  0  0  0  0  0  0
   14.4817    5.6257   13.6850 H   0  0  0  0  0  0  0  0  0  0  0  0
   13.4688    3.5611   11.6341 H   0  0  0  0  0  0  0  0  0  0  0  0
   14.2693    5.0330   11.2405 H   0  0  0  0  0  0  0  0  0  0  0  0
   14.1521    3.0049   17.7234 C   0  0  2  0  0  0  0  0  0  0  0  0
   15.3160    1.9730   16.1789 H   0  0  0  0  0  0  0  0  0  0  0  0
   15.8129    1.6461   17.7964 H   0  0  0  0  0  0  0  0  0  0  0  0
   12.3393    2.8418   16.5361 H   0  0  0  0  0  0  0  0  0  0  0  0
   12.4663    4.3275   17.4001 H   0  0  0  0  0  0  0  0  0  0  0  0
   14.8686    3.7922   17.9624 H   0  0  0  0  0  0  0  0  0  0  0  0
   13.7018    2.7325   18.6793 H   0  0  0  0  0  0  0  0  0  0  0  0
    6.4015    4.4027   12.9999 H   0  0  0  0  0  0  0  0  0  0  0  0
    7.1393    5.9068   12.4336 H   0  0  0  0  0  0  0  0  0  0  0  0
  1  2  2  0
  1  6  1  0
  1 12  1  0
  2  3  1  0
  2 11  1  0
  3  4  2  0
  3 28  1  0
  4  5  1  0
  4  8  1  0
  5  6  2  0
  5  7  1  0
  6 29  1  0
  7  9  2  0
  7 10  1  0
  8 30  1  6
  8 31  1  0
  8 32  1  0
 10 19  1  0
 10 33  1  0
 11 34  1  1
 11 35  1  0
 11 36  1  0
 12 13  1  0
 12 17  2  0
 13 14  2  0
 13 37  1  0
 14 15  1  0
 14 27  1  0
 15 16  2  0
 16 17  1  0
 16 18  1  0
 18 52  1  0
 18 53  1  0
 19 20  1  0
 19 38  1  6
 19 39  1  0
 20 45  1  0
 20 46  1  6
 20 47  1  0
 21 22  1  0
 21 45  1  0
 21 48  1  6
 21 49  1  0
 22 23  1  0
 22 40  1  0
 23 24  1  0
 23 25  2  0
 24 26  1  0
 24 41  1  6
 24 42  1  0
 26 27  1  0
 26 43  1  6
 26 44  1  0
 45 50  1  1
 45 51  1  0
M  END
