14
     RDKit          3D

 48 52  0  0  1  0  0  0  0  0999 V2000
    5.8116    1.2907  -21.3242 C   0  0  0  0  0  0  0  0  0  0  0  0
    6.6380    0.8781  -22.3833 C   0  0  0  0  0  0  0  0  0  0  0  0
    6.8942   -0.4731  -22.6063 C   0  0  0  0  0  0  0  0  0  0  0  0
    6.3528   -1.4369  -21.7629 C   0  0  0  0  0  0  0  0  0  0  0  0
    5.5392   -1.0620  -20.6873 C   0  0  0  0  0  0  0  0  0  0  0  0
    5.2616    0.2980  -20.4976 C   0  0  0  0  0  0  0  0  0  0  0  0
    5.0310   -2.0776  -19.7279 C   0  0  0  0  0  0  0  0  0  0  0  0
    5.9030   -2.9370  -19.0510 C   0  0  0  0  0  0  0  0  0  0  0  0
    5.4788   -3.8508  -18.1414 N   0  0  0  0  0  0  0  0  0  0  0  0
    4.1437   -3.9024  -17.9157 C   0  0  0  0  0  0  0  0  0  0  0  0
    3.2099   -3.1319  -18.5279 N   0  0  0  0  0  0  0  0  0  0  0  0
    3.6717   -2.2252  -19.4319 C   0  0  0  0  0  0  0  0  0  0  0  0
    6.6341   -2.7422  -21.9796 F   0  0  0  0  0  0  0  0  0  0  0  0
    5.9076    3.7015  -22.2240 C   0  0  0  0  0  0  0  0  0  0  0  0
    7.1046    4.4309  -22.3215 C   0  0  0  0  0  0  0  0  0  0  0  0
    7.3538    5.1918  -23.4634 C   0  0  0  0  0  0  0  0  0  0  0  0
    6.4851    5.2649  -24.5030 N   0  0  0  0  0  0  0  0  0  0  0  0
    5.3224    4.5572  -24.4223 C   0  0  0  0  0  0  0  0  0  0  0  0
    5.0090    3.7766  -23.3023 C   0  0  0  0  0  0  0  0  0  0  0  0
    4.3802    4.6561  -25.6299 C   0  0  1  0  0  0  0  0  0  0  0  0
    4.9915    4.2160  -26.7282 F   0  0  0  0  0  0  0  0  0  0  0  0
    3.2713    3.9346  -25.4747 F   0  0  0  0  0  0  0  0  0  0  0  0
    4.0318    5.9291  -25.8255 F   0  0  0  0  0  0  0  0  0  0  0  0
    7.1046    1.5950  -23.0433 H   0  0  0  0  0  0  0  0  0  0  0  0
    7.5225   -0.7799  -23.4295 H   0  0  0  0  0  0  0  0  0  0  0  0
    4.6562    0.5960  -19.6571 H   0  0  0  0  0  0  0  0  0  0  0  0
    6.9707   -2.8880  -19.2261 H   0  0  0  0  0  0  0  0  0  0  0  0
    3.7986   -4.6173  -17.1777 H   0  0  0  0  0  0  0  0  0  0  0  0
    2.9343   -1.5969  -19.9154 H   0  0  0  0  0  0  0  0  0  0  0  0
    7.8560    4.4047  -21.5470 H   0  0  0  0  0  0  0  0  0  0  0  0
    8.2767    5.7495  -23.5577 H   0  0  0  0  0  0  0  0  0  0  0  0
    4.0818    3.2193  -23.2770 H   0  0  0  0  0  0  0  0  0  0  0  0
    8.0488    3.3782  -18.2045 C   0  0  0  0  0  0  0  0  0  0  0  0
    7.6218    3.0442  -19.4502 N   0  0  0  0  0  0  0  0  0  0  0  0
    6.2920    3.1544  -19.7065 C   0  0  0  0  0  0  0  0  0  0  0  0
    5.3945    3.5622  -18.7287 C   0  0  0  0  0  0  0  0  0  0  0  0
    5.8350    3.9086  -17.4524 C   0  0  0  0  0  0  0  0  0  0  0  0
    7.1994    3.8136  -17.1856 C   0  0  0  0  0  0  0  0  0  0  0  0
    5.1420    4.2297  -16.6854 H   0  0  0  0  0  0  0  0  0  0  0  0
    4.0931    3.5222  -19.3257 C   0  0  0  0  0  0  0  0  0  0  0  0
    4.1986    3.0751  -20.5665 N   0  0  0  0  0  0  0  0  0  0  0  0
    5.5740    2.7943  -21.0102 C   0  0  2  0  0  0  0  0  0  0  0  0
    2.9591    3.8567  -18.7488 N   0  0  0  0  0  0  0  0  0  0  0  0
    9.1108    3.2871  -18.0251 H   0  0  0  0  0  0  0  0  0  0  0  0
    7.5897    4.0630  -16.2094 H   0  0  0  0  0  0  0  0  0  0  0  0
    3.3694    3.0375  -21.1682 H   0  0  0  0  0  0  0  0  0  0  0  0
    2.0628    3.7922  -19.2911 H   0  0  0  0  0  0  0  0  0  0  0  0
    2.8133    4.1039  -17.7586 H   0  0  0  0  0  0  0  0  0  0  0  0
 42  1  1  6
  1  6  2  0
  1  2  1  0
  2  3  2  0
  2 24  1  0
  3  4  1  0
  3 25  1  0
  4  5  2  0
  4 13  1  0
  5  6  1  0
  5  7  1  0
  6 26  1  0
  7 12  2  0
  7  8  1  0
  8  9  2  0
  8 27  1  0
  9 10  1  0
 10 28  1  0
 10 11  2  0
 11 12  1  0
 12 29  1  0
 14 15  1  0
 14 19  2  0
 14 42  1  0
 15 30  1  0
 15 16  2  0
 16 17  1  0
 16 31  1  0
 17 18  2  0
 18 19  1  0
 18 20  1  0
 19 32  1  0
 20 22  1  1
 20 21  1  0
 20 23  1  0
 33 44  1  0
 33 38  2  0
 33 34  1  0
 34 35  2  0
 35 36  1  0
 35 42  1  0
 36 37  2  0
 36 40  1  0
 37 38  1  0
 37 39  1  0
 38 45  1  0
 40 43  1  0
 40 41  2  0
 41 42  1  0
 41 46  1  0
 43 48  1  0
 43 47  1  0
M  CHG  1  41   1
M  END
