21
     RDKit          3D

 49 53  0  0  1  0  0  0  0  0999 V2000
    5.6901    1.3348  -21.4139 C   0  0  0  0  0  0  0  0  0  0  0  0
    6.5536    0.9207  -22.4415 C   0  0  0  0  0  0  0  0  0  0  0  0
    6.8304   -0.4292  -22.6441 C   0  0  0  0  0  0  0  0  0  0  0  0
    6.2708   -1.3899  -21.8097 C   0  0  0  0  0  0  0  0  0  0  0  0
    5.4176   -1.0146  -20.7645 C   0  0  0  0  0  0  0  0  0  0  0  0
    5.1150    0.3450  -20.6009 C   0  0  0  0  0  0  0  0  0  0  0  0
    4.9026   -2.0284  -19.8046 C   0  0  0  0  0  0  0  0  0  0  0  0
    5.7680   -2.9012  -19.1355 C   0  0  0  0  0  0  0  0  0  0  0  0
    5.3394   -3.8143  -18.2271 N   0  0  0  0  0  0  0  0  0  0  0  0
    4.0058   -3.8499  -17.9918 C   0  0  0  0  0  0  0  0  0  0  0  0
    3.0776   -3.0641  -18.5932 N   0  0  0  0  0  0  0  0  0  0  0  0
    3.5445   -2.1602  -19.4981 C   0  0  0  0  0  0  0  0  0  0  0  0
    6.5776   -2.6933  -22.0038 F   0  0  0  0  0  0  0  0  0  0  0  0
    5.7795    3.7513  -22.3261 C   0  0  0  0  0  0  0  0  0  0  0  0
    6.9353    4.5473  -22.4226 C   0  0  0  0  0  0  0  0  0  0  0  0
    7.1504    5.3164  -23.5640 C   0  0  0  0  0  0  0  0  0  0  0  0
    6.2811    5.3441  -24.6032 N   0  0  0  0  0  0  0  0  0  0  0  0
    5.1521    4.5841  -24.5173 C   0  0  0  0  0  0  0  0  0  0  0  0
    4.8769    3.7846  -23.4000 C   0  0  0  0  0  0  0  0  0  0  0  0
    4.1984    4.6619  -25.7129 C   0  0  1  0  0  0  0  0  0  0  0  0
    4.8303    4.2977  -26.8274 F   0  0  0  0  0  0  0  0  0  0  0  0
    3.1334    3.8749  -25.5750 F   0  0  0  0  0  0  0  0  0  0  0  0
    3.7782    5.9186  -25.8595 F   0  0  0  0  0  0  0  0  0  0  0  0
    7.0376    1.6403  -23.0856 H   0  0  0  0  0  0  0  0  0  0  0  0
    7.4899   -0.7371  -23.4422 H   0  0  0  0  0  0  0  0  0  0  0  0
    4.4799    0.6503  -19.7856 H   0  0  0  0  0  0  0  0  0  0  0  0
    6.8351   -2.8645  -19.3162 H   0  0  0  0  0  0  0  0  0  0  0  0
    3.6582   -4.5666  -17.2562 H   0  0  0  0  0  0  0  0  0  0  0  0
    2.8126   -1.5202  -19.9742 H   0  0  0  0  0  0  0  0  0  0  0  0
    7.6790    4.5775  -21.6424 H   0  0  0  0  0  0  0  0  0  0  0  0
    8.0420    5.9236  -23.6541 H   0  0  0  0  0  0  0  0  0  0  0  0
    3.9757    3.1880  -23.3613 H   0  0  0  0  0  0  0  0  0  0  0  0
    8.2604    3.4237  -18.4633 C   0  0  0  0  0  0  0  0  0  0  0  0
    7.6735    2.9722  -19.6401 C   0  0  0  0  0  0  0  0  0  0  0  0
    6.3108    3.1846  -19.8712 C   0  0  0  0  0  0  0  0  0  0  0  0
    5.5242    3.7795  -18.8801 C   0  0  0  0  0  0  0  0  0  0  0  0
    6.1265    4.2892  -17.7186 C   0  0  0  0  0  0  0  0  0  0  0  0
    7.4940    4.0979  -17.5158 C   0  0  0  0  0  0  0  0  0  0  0  0
    5.2656    5.1974  -16.5336 Cl  0  0  0  0  0  0  0  0  0  0  0  0
    4.1587    3.7141  -19.3661 C   0  0  0  0  0  0  0  0  0  0  0  0
    4.1618    3.1748  -20.5642 N   0  0  0  0  0  0  0  0  0  0  0  0
    5.4868    2.8413  -21.1034 C   0  0  2  0  0  0  0  0  0  0  0  0
    3.0498    4.0632  -18.7715 N   0  0  0  0  0  0  0  0  0  0  0  0
    9.3142    3.2695  -18.3017 H   0  0  0  0  0  0  0  0  0  0  0  0
    8.2859    2.4767  -20.3812 H   0  0  0  0  0  0  0  0  0  0  0  0
    7.9663    4.4748  -16.6200 H   0  0  0  0  0  0  0  0  0  0  0  0
    2.1516    3.9147  -19.2798 H   0  0  0  0  0  0  0  0  0  0  0  0
    2.9531    4.3125  -17.7801 H   0  0  0  0  0  0  0  0  0  0  0  0
    3.2610    3.1559  -21.0892 H   0  0  0  0  0  0  0  0  0  0  0  0
 42  1  1  6
  1  6  2  0
  1  2  1  0
  2  3  2  0
  2 24  1  0
  3  4  1  0
  3 25  1  0
  4  5  2  0
  4 13  1  0
  5  6  1  0
  5  7  1  0
  6 26  1  0
  7 12  2  0
  7  8  1  0
  8  9  2  0
  8 27  1  0
  9 10  1  0
 10 28  1  0
 10 11  2  0
 11 12  1  0
 12 29  1  0
 14 15  1  0
 14 19  2  0
 14 42  1  0
 15 30  1  0
 15 16  2  0
 16 17  1  0
 16 31  1  0
 17 18  2  0
 18 19  1  0
 18 20  1  0
 19 32  1  0
 20 22  1  1
 20 21  1  0
 20 23  1  0
 33 44  1  0
 33 38  2  0
 33 34  1  0
 34 35  2  0
 34 45  1  0
 35 36  1  0
 35 42  1  0
 36 37  2  0
 36 40  1  0
 37 38  1  0
 37 39  1  0
 38 46  1  0
 40 43  1  0
 40 41  2  0
 41 42  1  0
 41 49  1  0
 43 48  1  0
 43 47  1  0
M  CHG  1  41   1
M  END
