24
     RDKit          3D

 52 56  0  0  1  0  0  0  0  0999 V2000
    5.6999    1.4086  -21.3955 C   0  0  0  0  0  0  0  0  0  0  0  0
    6.5674    0.9951  -22.4204 C   0  0  0  0  0  0  0  0  0  0  0  0
    6.8449   -0.3539  -22.6252 C   0  0  0  0  0  0  0  0  0  0  0  0
    6.2813   -1.3159  -21.7956 C   0  0  0  0  0  0  0  0  0  0  0  0
    5.4257   -0.9425  -20.7517 C   0  0  0  0  0  0  0  0  0  0  0  0
    5.1238    0.4177  -20.5839 C   0  0  0  0  0  0  0  0  0  0  0  0
    4.9052   -1.9640  -19.8031 C   0  0  0  0  0  0  0  0  0  0  0  0
    5.7687   -2.8300  -19.1225 C   0  0  0  0  0  0  0  0  0  0  0  0
    5.3340   -3.7561  -18.2302 N   0  0  0  0  0  0  0  0  0  0  0  0
    3.9964   -3.8120  -18.0231 C   0  0  0  0  0  0  0  0  0  0  0  0
    3.0703   -3.0337  -18.6374 N   0  0  0  0  0  0  0  0  0  0  0  0
    3.5429   -2.1170  -19.5263 C   0  0  0  0  0  0  0  0  0  0  0  0
    6.5850   -2.6194  -21.9946 F   0  0  0  0  0  0  0  0  0  0  0  0
    5.7569    3.8109  -22.3400 C   0  0  0  0  0  0  0  0  0  0  0  0
    6.9090    4.6101  -22.4585 C   0  0  0  0  0  0  0  0  0  0  0  0
    7.1097    5.3667  -23.6102 C   0  0  0  0  0  0  0  0  0  0  0  0
    6.2305    5.3781  -24.6408 N   0  0  0  0  0  0  0  0  0  0  0  0
    5.1067    4.6130  -24.5351 C   0  0  0  0  0  0  0  0  0  0  0  0
    4.8444    3.8255  -23.4058 C   0  0  0  0  0  0  0  0  0  0  0  0
    4.1441    4.6726  -25.7232 C   0  0  1  0  0  0  0  0  0  0  0  0
    4.7775    4.3307  -26.8441 F   0  0  0  0  0  0  0  0  0  0  0  0
    3.1002    3.8591  -25.5813 F   0  0  0  0  0  0  0  0  0  0  0  0
    3.6929    5.9193  -25.8585 F   0  0  0  0  0  0  0  0  0  0  0  0
    7.0525    1.7150  -23.0635 H   0  0  0  0  0  0  0  0  0  0  0  0
    7.5066   -0.6606  -23.4218 H   0  0  0  0  0  0  0  0  0  0  0  0
    4.4835    0.7216  -19.7719 H   0  0  0  0  0  0  0  0  0  0  0  0
    6.8385   -2.7788  -19.2826 H   0  0  0  0  0  0  0  0  0  0  0  0
    3.6435   -4.5400  -17.3012 H   0  0  0  0  0  0  0  0  0  0  0  0
    2.8122   -1.4849  -20.0146 H   0  0  0  0  0  0  0  0  0  0  0  0
    7.6614    4.6519  -21.6871 H   0  0  0  0  0  0  0  0  0  0  0  0
    7.9977    5.9764  -23.7154 H   0  0  0  0  0  0  0  0  0  0  0  0
    3.9461    3.2255  -23.3513 H   0  0  0  0  0  0  0  0  0  0  0  0
    8.2921    3.5966  -18.5358 C   0  0  0  0  0  0  0  0  0  0  0  0
    7.6745    3.0658  -19.6591 C   0  0  0  0  0  0  0  0  0  0  0  0
    6.3182    3.3056  -19.8898 C   0  0  0  0  0  0  0  0  0  0  0  0
    5.5599    4.0043  -18.9435 C   0  0  0  0  0  0  0  0  0  0  0  0
    6.1975    4.6335  -17.8479 C   0  0  0  0  0  0  0  0  0  0  0  0
    7.5683    4.3938  -17.6551 C   0  0  0  0  0  0  0  0  0  0  0  0
    5.5202    5.6404  -16.9111 C   0  0  1  0  0  0  0  0  0  0  0  0
    4.1764    3.8575  -19.3880 C   0  0  0  0  0  0  0  0  0  0  0  0
    4.1640    3.2454  -20.5509 N   0  0  0  0  0  0  0  0  0  0  0  0
    5.4835    2.9170  -21.1004 C   0  0  2  0  0  0  0  0  0  0  0  0
    3.0652    4.1891  -18.7858 N   0  0  0  0  0  0  0  0  0  0  0  0
    9.3431    3.4215  -18.3741 H   0  0  0  0  0  0  0  0  0  0  0  0
    8.2608    2.4940  -20.3656 H   0  0  0  0  0  0  0  0  0  0  0  0
    8.0933    4.8371  -16.8192 H   0  0  0  0  0  0  0  0  0  0  0  0
    2.1662    3.9860  -19.2731 H   0  0  0  0  0  0  0  0  0  0  0  0
    2.9756    4.4571  -17.7989 H   0  0  0  0  0  0  0  0  0  0  0  0
    3.2553    3.1913  -21.0614 H   0  0  0  0  0  0  0  0  0  0  0  0
    6.3911    6.5773  -16.5246 F   0  0  0  0  0  0  0  0  0  0  0  0
    4.5179    6.2831  -17.5051 F   0  0  0  0  0  0  0  0  0  0  0  0
    5.0946    5.0192  -15.8192 F   0  0  0  0  0  0  0  0  0  0  0  0
 42  1  1  6
  1  6  2  0
  1  2  1  0
  2  3  2  0
  2 24  1  0
  3  4  1  0
  3 25  1  0
  4  5  2  0
  4 13  1  0
  5  6  1  0
  5  7  1  0
  6 26  1  0
  7 12  2  0
  7  8  1  0
  8  9  2  0
  8 27  1  0
  9 10  1  0
 10 28  1  0
 10 11  2  0
 11 12  1  0
 12 29  1  0
 14 15  1  0
 14 19  2  0
 14 42  1  0
 15 30  1  0
 15 16  2  0
 16 17  1  0
 16 31  1  0
 17 18  2  0
 18 19  1  0
 18 20  1  0
 19 32  1  0
 20 22  1  1
 20 21  1  0
 20 23  1  0
 33 44  1  0
 33 38  2  0
 33 34  1  0
 34 35  2  0
 34 45  1  0
 35 36  1  0
 35 42  1  0
 36 37  2  0
 36 40  1  0
 37 38  1  0
 37 39  1  0
 38 46  1  0
 39 50  1  1
 39 51  1  0
 39 52  1  0
 40 43  1  0
 40 41  2  0
 41 42  1  0
 41 49  1  0
 43 48  1  0
 43 47  1  0
M  CHG  1  41   1
M  END
