15
     RDKit          3D

 47 51  0  0  1  0  0  0  0  0999 V2000
    5.7893    1.2780  -21.3636 C   0  0  0  0  0  0  0  0  0  0  0  0
    6.6236    0.8676  -22.4163 C   0  0  0  0  0  0  0  0  0  0  0  0
    6.8851   -0.4833  -22.6348 C   0  0  0  0  0  0  0  0  0  0  0  0
    6.3409   -1.4475  -21.7930 C   0  0  0  0  0  0  0  0  0  0  0  0
    5.5184   -1.0732  -20.7236 C   0  0  0  0  0  0  0  0  0  0  0  0
    5.2340    0.2859  -20.5397 C   0  0  0  0  0  0  0  0  0  0  0  0
    5.0085   -2.0859  -19.7615 C   0  0  0  0  0  0  0  0  0  0  0  0
    5.8772   -2.9549  -19.0924 C   0  0  0  0  0  0  0  0  0  0  0  0
    5.4515   -3.8634  -18.1782 N   0  0  0  0  0  0  0  0  0  0  0  0
    4.1183   -3.8993  -17.9391 C   0  0  0  0  0  0  0  0  0  0  0  0
    3.1874   -3.1181  -18.5422 N   0  0  0  0  0  0  0  0  0  0  0  0
    3.6507   -2.2175  -19.4514 C   0  0  0  0  0  0  0  0  0  0  0  0
    6.6291   -2.7521  -22.0047 F   0  0  0  0  0  0  0  0  0  0  0  0
    5.8720    3.6996  -22.2551 C   0  0  0  0  0  0  0  0  0  0  0  0
    7.0334    4.4871  -22.3354 C   0  0  0  0  0  0  0  0  0  0  0  0
    7.2617    5.2607  -23.4729 C   0  0  0  0  0  0  0  0  0  0  0  0
    6.4019    5.2972  -24.5210 N   0  0  0  0  0  0  0  0  0  0  0  0
    5.2682    4.5432  -24.4508 C   0  0  0  0  0  0  0  0  0  0  0  0
    4.9786    3.7424  -23.3387 C   0  0  0  0  0  0  0  0  0  0  0  0
    4.3282    4.6197  -25.6595 C   0  0  1  0  0  0  0  0  0  0  0  0
    4.9511    4.1807  -26.7516 F   0  0  0  0  0  0  0  0  0  0  0  0
    3.2292    3.8847  -25.4995 F   0  0  0  0  0  0  0  0  0  0  0  0
    3.9616    5.8859  -25.8634 F   0  0  0  0  0  0  0  0  0  0  0  0
    7.0916    1.5865  -23.0736 H   0  0  0  0  0  0  0  0  0  0  0  0
    7.5193   -0.7903  -23.4534 H   0  0  0  0  0  0  0  0  0  0  0  0
    4.6217    0.5821  -19.7033 H   0  0  0  0  0  0  0  0  0  0  0  0
    6.9438   -2.9181  -19.2764 H   0  0  0  0  0  0  0  0  0  0  0  0
    3.7726   -4.6103  -17.1975 H   0  0  0  0  0  0  0  0  0  0  0  0
    2.9157   -1.5805  -19.9272 H   0  0  0  0  0  0  0  0  0  0  0  0
    7.7715    4.5072  -21.5495 H   0  0  0  0  0  0  0  0  0  0  0  0
    8.1575    5.8631  -23.5548 H   0  0  0  0  0  0  0  0  0  0  0  0
    4.0728    3.1501  -23.3198 H   0  0  0  0  0  0  0  0  0  0  0  0
    8.1217    3.3272  -18.1800 N   0  0  0  0  0  0  0  0  0  0  0  0
    7.6685    2.9885  -19.4177 C   0  0  0  0  0  0  0  0  0  0  0  0
    6.3223    3.1131  -19.7736 C   0  0  0  0  0  0  0  0  0  0  0  0
    5.4606    3.5600  -18.7805 C   0  0  0  0  0  0  0  0  0  0  0  0
    5.8662    3.9190  -17.5326 N   0  0  0  0  0  0  0  0  0  0  0  0
    7.1965    3.7831  -17.2924 C   0  0  0  0  0  0  0  0  0  0  0  0
    4.1222    3.5355  -19.3302 C   0  0  0  0  0  0  0  0  0  0  0  0
    4.1997    3.0731  -20.5694 N   0  0  0  0  0  0  0  0  0  0  0  0
    5.5629    2.7784  -21.0489 C   0  0  2  0  0  0  0  0  0  0  0  0
    2.9893    3.8814  -18.7397 N   0  0  0  0  0  0  0  0  0  0  0  0
    8.4024    2.6081  -20.1171 H   0  0  0  0  0  0  0  0  0  0  0  0
    7.5513    4.0530  -16.3040 H   0  0  0  0  0  0  0  0  0  0  0  0
    3.3576    3.0363  -21.1540 H   0  0  0  0  0  0  0  0  0  0  0  0
    2.0851    3.8100  -19.2668 H   0  0  0  0  0  0  0  0  0  0  0  0
    2.8701    4.1344  -17.7477 H   0  0  0  0  0  0  0  0  0  0  0  0
 41  1  1  6
  1  6  2  0
  1  2  1  0
  2  3  2  0
  2 24  1  0
  3  4  1  0
  3 25  1  0
  4  5  2  0
  4 13  1  0
  5  6  1  0
  5  7  1  0
  6 26  1  0
  7 12  2  0
  7  8  1  0
  8  9  2  0
  8 27  1  0
  9 10  1  0
 10 28  1  0
 10 11  2  0
 11 12  1  0
 12 29  1  0
 14 15  1  0
 14 19  2  0
 14 41  1  0
 15 30  1  0
 15 16  2  0
 16 17  1  0
 16 31  1  0
 17 18  2  0
 18 19  1  0
 18 20  1  0
 19 32  1  0
 20 22  1  1
 20 21  1  0
 20 23  1  0
 33 38  2  0
 33 34  1  0
 34 35  2  0
 34 43  1  0
 35 36  1  0
 35 41  1  0
 36 37  2  0
 36 39  1  0
 37 38  1  0
 38 44  1  0
 39 42  1  0
 39 40  2  0
 40 41  1  0
 40 45  1  0
 42 47  1  0
 42 46  1  0
M  CHG  1  40   1
M  END
