11
     RDKit          3D

 49 53  0  0  1  0  0  0  0  0999 V2000
    5.7537    1.3588  -21.3290 C   0  0  0  0  0  0  0  0  0  0  0  0
    6.6094    0.9664  -22.3722 C   0  0  0  0  0  0  0  0  0  0  0  0
    6.8870   -0.3795  -22.6031 C   0  0  0  0  0  0  0  0  0  0  0  0
    6.3384   -1.3579  -21.7814 C   0  0  0  0  0  0  0  0  0  0  0  0
    5.4960   -1.0044  -20.7208 C   0  0  0  0  0  0  0  0  0  0  0  0
    5.1948    0.3505  -20.5280 C   0  0  0  0  0  0  0  0  0  0  0  0
    4.9852   -2.0345  -19.7769 C   0  0  0  0  0  0  0  0  0  0  0  0
    5.8545   -2.9083  -19.1148 C   0  0  0  0  0  0  0  0  0  0  0  0
    5.4289   -3.8328  -18.2164 N   0  0  0  0  0  0  0  0  0  0  0  0
    4.0946   -3.8799  -17.9860 C   0  0  0  0  0  0  0  0  0  0  0  0
    3.1629   -3.0954  -18.5836 N   0  0  0  0  0  0  0  0  0  0  0  0
    3.6265   -2.1791  -19.4775 C   0  0  0  0  0  0  0  0  0  0  0  0
    6.6429   -2.6572  -22.0036 F   0  0  0  0  0  0  0  0  0  0  0  0
    5.8240    3.7834  -22.2044 C   0  0  0  0  0  0  0  0  0  0  0  0
    6.9712    4.5921  -22.2688 C   0  0  0  0  0  0  0  0  0  0  0  0
    7.2122    5.3527  -23.4127 C   0  0  0  0  0  0  0  0  0  0  0  0
    6.3765    5.3592  -24.4814 N   0  0  0  0  0  0  0  0  0  0  0  0
    5.2525    4.5887  -24.4232 C   0  0  0  0  0  0  0  0  0  0  0  0
    4.9537    3.7986  -23.3062 C   0  0  0  0  0  0  0  0  0  0  0  0
    4.3315    4.6368  -25.6485 C   0  0  1  0  0  0  0  0  0  0  0  0
    4.9759    4.1945  -26.7268 F   0  0  0  0  0  0  0  0  0  0  0  0
    3.2385    3.8904  -25.4994 F   0  0  0  0  0  0  0  0  0  0  0  0
    3.9522    5.8959  -25.8729 F   0  0  0  0  0  0  0  0  0  0  0  0
    7.0819    1.6983  -23.0113 H   0  0  0  0  0  0  0  0  0  0  0  0
    7.5383   -0.6711  -23.4138 H   0  0  0  0  0  0  0  0  0  0  0  0
    4.5664    0.6378  -19.7021 H   0  0  0  0  0  0  0  0  0  0  0  0
    6.9219   -2.8618  -19.2917 H   0  0  0  0  0  0  0  0  0  0  0  0
    3.7489   -4.6035  -17.2564 H   0  0  0  0  0  0  0  0  0  0  0  0
    2.8916   -1.5390  -19.9490 H   0  0  0  0  0  0  0  0  0  0  0  0
    7.6877    4.6305  -21.4638 H   0  0  0  0  0  0  0  0  0  0  0  0
    8.0997    5.9682  -23.4829 H   0  0  0  0  0  0  0  0  0  0  0  0
    4.0614    3.1871  -23.2931 H   0  0  0  0  0  0  0  0  0  0  0  0
    8.0454    3.4336  -18.1076 C   0  0  0  0  0  0  0  0  0  0  0  0
    7.6063    3.0817  -19.3829 C   0  0  0  0  0  0  0  0  0  0  0  0
    6.2525    3.1971  -19.7060 C   0  0  0  0  0  0  0  0  0  0  0  0
    5.3658    3.6262  -18.7183 C   0  0  0  0  0  0  0  0  0  0  0  0
    5.7971    3.9851  -17.4395 C   0  0  0  0  0  0  0  0  0  0  0  0
    7.1525    3.8883  -17.1379 C   0  0  0  0  0  0  0  0  0  0  0  0
    5.0975    4.3188  -16.6828 H   0  0  0  0  0  0  0  0  0  0  0  0
    4.0535    3.5895  -19.3058 C   0  0  0  0  0  0  0  0  0  0  0  0
    4.1452    3.1386  -20.5334 N   0  0  0  0  0  0  0  0  0  0  0  0
    5.5116    2.8575  -21.0001 C   0  0  2  0  0  0  0  0  0  0  0  0
    2.9251    3.9206  -18.7507 N   0  0  0  0  0  0  0  0  0  0  0  0
    9.0929    3.3459  -17.8667 H   0  0  0  0  0  0  0  0  0  0  0  0
    8.3197    2.7178  -20.1097 H   0  0  0  0  0  0  0  0  0  0  0  0
    7.5098    4.1514  -16.1518 H   0  0  0  0  0  0  0  0  0  0  0  0
    3.2755    3.1368  -21.1049 H   0  0  0  0  0  0  0  0  0  0  0  0
    2.0462    3.8274  -19.3095 H   0  0  0  0  0  0  0  0  0  0  0  0
    2.7801    4.1492  -17.7590 H   0  0  0  0  0  0  0  0  0  0  0  0
 42  1  1  6
  1  6  2  0
  1  2  1  0
  2  3  2  0
  2 24  1  0
  3  4  1  0
  3 25  1  0
  4  5  2  0
  4 13  1  0
  5  6  1  0
  5  7  1  0
  6 26  1  0
  7 12  2  0
  7  8  1  0
  8  9  2  0
  8 27  1  0
  9 10  1  0
 10 28  1  0
 10 11  2  0
 11 12  1  0
 12 29  1  0
 14 15  1  0
 14 19  2  0
 14 42  1  0
 15 30  1  0
 15 16  2  0
 16 17  1  0
 16 31  1  0
 17 18  2  0
 18 19  1  0
 18 20  1  0
 19 32  1  0
 20 22  1  1
 20 21  1  0
 20 23  1  0
 33 44  1  0
 33 38  2  0
 33 34  1  0
 34 35  2  0
 34 45  1  0
 35 36  1  0
 35 42  1  0
 36 37  2  0
 36 40  1  0
 37 38  1  0
 37 39  1  0
 38 46  1  0
 40 43  1  0
 40 41  2  0
 41 42  1  0
 41 47  1  0
 43 49  1  0
 43 48  1  0
M  CHG  1  41   1
M  END
