23
     RDKit          3D

 53 57  0  0  1  0  0  0  0  0999 V2000
    5.7054    1.3210  -21.4221 C   0  0  0  0  0  0  0  0  0  0  0  0
    6.5693    0.9057  -22.4484 C   0  0  0  0  0  0  0  0  0  0  0  0
    6.8461   -0.4447  -22.6488 C   0  0  0  0  0  0  0  0  0  0  0  0
    6.2869   -1.4044  -21.8124 C   0  0  0  0  0  0  0  0  0  0  0  0
    5.4334   -1.0275  -20.7682 C   0  0  0  0  0  0  0  0  0  0  0  0
    5.1306    0.3321  -20.6073 C   0  0  0  0  0  0  0  0  0  0  0  0
    4.9185   -2.0389  -19.8058 C   0  0  0  0  0  0  0  0  0  0  0  0
    5.7841   -2.9087  -19.1333 C   0  0  0  0  0  0  0  0  0  0  0  0
    5.3556   -3.8184  -18.2213 N   0  0  0  0  0  0  0  0  0  0  0  0
    4.0220   -3.8540  -17.9863 C   0  0  0  0  0  0  0  0  0  0  0  0
    3.0936   -3.0712  -18.5913 N   0  0  0  0  0  0  0  0  0  0  0  0
    3.5602   -2.1703  -19.4992 C   0  0  0  0  0  0  0  0  0  0  0  0
    6.5942   -2.7081  -22.0034 F   0  0  0  0  0  0  0  0  0  0  0  0
    5.7912    3.7389  -22.3346 C   0  0  0  0  0  0  0  0  0  0  0  0
    6.9503    4.5296  -22.4325 C   0  0  0  0  0  0  0  0  0  0  0  0
    7.1638    5.3029  -23.5714 C   0  0  0  0  0  0  0  0  0  0  0  0
    6.2904    5.3389  -24.6069 N   0  0  0  0  0  0  0  0  0  0  0  0
    5.1593    4.5820  -24.5204 C   0  0  0  0  0  0  0  0  0  0  0  0
    4.8848    3.7792  -23.4053 C   0  0  0  0  0  0  0  0  0  0  0  0
    4.2028    4.6661  -25.7132 C   0  0  1  0  0  0  0  0  0  0  0  0
    4.8317    4.3076  -26.8311 F   0  0  0  0  0  0  0  0  0  0  0  0
    3.1388    3.8774  -25.5764 F   0  0  0  0  0  0  0  0  0  0  0  0
    3.7816    5.9233  -25.8527 F   0  0  0  0  0  0  0  0  0  0  0  0
    7.0535    1.6249  -23.0928 H   0  0  0  0  0  0  0  0  0  0  0  0
    7.5059   -0.7535  -23.4461 H   0  0  0  0  0  0  0  0  0  0  0  0
    4.4955    0.6380  -19.7921 H   0  0  0  0  0  0  0  0  0  0  0  0
    6.8513   -2.8721  -19.3137 H   0  0  0  0  0  0  0  0  0  0  0  0
    3.6745   -4.5675  -17.2476 H   0  0  0  0  0  0  0  0  0  0  0  0
    2.8280   -1.5323  -19.9775 H   0  0  0  0  0  0  0  0  0  0  0  0
    7.6971    4.5521  -21.6550 H   0  0  0  0  0  0  0  0  0  0  0  0
    8.0575    5.9067  -23.6623 H   0  0  0  0  0  0  0  0  0  0  0  0
    3.9811    3.1863  -23.3656 H   0  0  0  0  0  0  0  0  0  0  0  0
    8.2360    3.3982  -18.4264 C   0  0  0  0  0  0  0  0  0  0  0  0
    7.6767    2.9792  -19.6287 C   0  0  0  0  0  0  0  0  0  0  0  0
    6.3143    3.1716  -19.8741 C   0  0  0  0  0  0  0  0  0  0  0  0
    5.5106    3.7274  -18.8773 C   0  0  0  0  0  0  0  0  0  0  0  0
    6.0663    4.1841  -17.6771 C   0  0  0  0  0  0  0  0  0  0  0  0
    7.4413    4.0112  -17.4594 C   0  0  0  0  0  0  0  0  0  0  0  0
    5.2167    4.8032  -16.7890 O   0  0  0  0  0  0  0  0  0  0  0  0
    4.1566    3.6746  -19.3769 C   0  0  0  0  0  0  0  0  0  0  0  0
    4.1678    3.1522  -20.5812 N   0  0  0  0  0  0  0  0  0  0  0  0
    5.4986    2.8274  -21.1135 C   0  0  2  0  0  0  0  0  0  0  0  0
    3.0523    4.0354  -18.7855 N   0  0  0  0  0  0  0  0  0  0  0  0
    9.2901    3.2561  -18.2545 H   0  0  0  0  0  0  0  0  0  0  0  0
    8.3085    2.5163  -20.3747 H   0  0  0  0  0  0  0  0  0  0  0  0
    7.9134    4.3417  -16.5473 H   0  0  0  0  0  0  0  0  0  0  0  0
    2.1485    3.8990  -19.2862 H   0  0  0  0  0  0  0  0  0  0  0  0
    2.9851    4.2931  -17.7948 H   0  0  0  0  0  0  0  0  0  0  0  0
    3.2696    3.1415  -21.1094 H   0  0  0  0  0  0  0  0  0  0  0  0
    5.7010    5.1975  -15.5061 C   0  0  1  0  0  0  0  0  0  0  0  0
    4.8773    5.6094  -14.9220 H   0  0  0  0  0  0  0  0  0  0  0  0
    6.1013    4.3512  -14.9455 H   0  0  0  0  0  0  0  0  0  0  0  0
    6.4666    5.9708  -15.5822 H   0  0  0  0  0  0  0  0  0  0  0  0
 42  1  1  6
  1  6  2  0
  1  2  1  0
  2  3  2  0
  2 24  1  0
  3  4  1  0
  3 25  1  0
  4  5  2  0
  4 13  1  0
  5  6  1  0
  5  7  1  0
  6 26  1  0
  7 12  2  0
  7  8  1  0
  8  9  2  0
  8 27  1  0
  9 10  1  0
 10 28  1  0
 10 11  2  0
 11 12  1  0
 12 29  1  0
 14 15  1  0
 14 19  2  0
 14 42  1  0
 15 30  1  0
 15 16  2  0
 16 17  1  0
 16 31  1  0
 17 18  2  0
 18 19  1  0
 18 20  1  0
 19 32  1  0
 20 22  1  1
 20 21  1  0
 20 23  1  0
 33 44  1  0
 33 38  2  0
 33 34  1  0
 34 35  2  0
 34 45  1  0
 35 36  1  0
 35 42  1  0
 36 37  2  0
 36 40  1  0
 37 38  1  0
 37 39  1  0
 38 46  1  0
 39 50  1  0
 40 43  1  0
 40 41  2  0
 41 42  1  0
 41 49  1  0
 43 48  1  0
 43 47  1  0
 50 51  1  1
 50 52  1  0
 50 53  1  0
M  CHG  1  41   1
M  END
