16
     RDKit          3D

 47 51  0  0  1  0  0  0  0  0999 V2000
    5.7860    1.2751  -21.3558 C   0  0  0  0  0  0  0  0  0  0  0  0
    6.6270    0.8628  -22.4030 C   0  0  0  0  0  0  0  0  0  0  0  0
    6.8868   -0.4883  -22.6214 C   0  0  0  0  0  0  0  0  0  0  0  0
    6.3367   -1.4516  -21.7830 C   0  0  0  0  0  0  0  0  0  0  0  0
    5.5094   -1.0763  -20.7177 C   0  0  0  0  0  0  0  0  0  0  0  0
    5.2249    0.2832  -20.5357 C   0  0  0  0  0  0  0  0  0  0  0  0
    4.9970   -2.0885  -19.7564 C   0  0  0  0  0  0  0  0  0  0  0  0
    5.8646   -2.9565  -19.0846 C   0  0  0  0  0  0  0  0  0  0  0  0
    5.4376   -3.8647  -18.1709 N   0  0  0  0  0  0  0  0  0  0  0  0
    4.1039   -3.9012  -17.9346 C   0  0  0  0  0  0  0  0  0  0  0  0
    3.1739   -3.1210  -18.5402 N   0  0  0  0  0  0  0  0  0  0  0  0
    3.6386   -2.2207  -19.4491 C   0  0  0  0  0  0  0  0  0  0  0  0
    6.6247   -2.7565  -21.9930 F   0  0  0  0  0  0  0  0  0  0  0  0
    5.8748    3.6857  -22.2572 C   0  0  0  0  0  0  0  0  0  0  0  0
    7.0627    4.4298  -22.3596 C   0  0  0  0  0  0  0  0  0  0  0  0
    7.2993    5.1949  -23.5006 C   0  0  0  0  0  0  0  0  0  0  0  0
    6.4246    5.2599  -24.5347 N   0  0  0  0  0  0  0  0  0  0  0  0
    5.2695    4.5407  -24.4481 C   0  0  0  0  0  0  0  0  0  0  0  0
    4.9679    3.7539  -23.3289 C   0  0  0  0  0  0  0  0  0  0  0  0
    4.3222    4.6350  -25.6498 C   0  0  1  0  0  0  0  0  0  0  0  0
    4.9351    4.2047  -26.7511 F   0  0  0  0  0  0  0  0  0  0  0  0
    3.2215    3.9023  -25.4904 F   0  0  0  0  0  0  0  0  0  0  0  0
    3.9610    5.9052  -25.8376 F   0  0  0  0  0  0  0  0  0  0  0  0
    7.1050    1.5808  -23.0539 H   0  0  0  0  0  0  0  0  0  0  0  0
    7.5272   -0.7952  -23.4351 H   0  0  0  0  0  0  0  0  0  0  0  0
    4.6091    0.5800  -19.7024 H   0  0  0  0  0  0  0  0  0  0  0  0
    6.9316   -2.9188  -19.2662 H   0  0  0  0  0  0  0  0  0  0  0  0
    3.7572   -4.6122  -17.1935 H   0  0  0  0  0  0  0  0  0  0  0  0
    2.9044   -1.5846  -19.9271 H   0  0  0  0  0  0  0  0  0  0  0  0
    7.8177    4.4143  -21.5886 H   0  0  0  0  0  0  0  0  0  0  0  0
    8.2157    5.7632  -23.5980 H   0  0  0  0  0  0  0  0  0  0  0  0
    4.0443    3.1903  -23.2981 H   0  0  0  0  0  0  0  0  0  0  0  0
    8.0704    3.3401  -18.2579 C   0  0  0  0  0  0  0  0  0  0  0  0
    7.6434    2.9986  -19.5069 N   0  0  0  0  0  0  0  0  0  0  0  0
    6.3082    3.1279  -19.7576 C   0  0  0  0  0  0  0  0  0  0  0  0
    5.4338    3.5541  -18.7652 C   0  0  0  0  0  0  0  0  0  0  0  0
    5.8430    3.9057  -17.5148 N   0  0  0  0  0  0  0  0  0  0  0  0
    7.1798    3.7915  -17.2739 C   0  0  0  0  0  0  0  0  0  0  0  0
    4.1070    3.5247  -19.3240 C   0  0  0  0  0  0  0  0  0  0  0  0
    4.1913    3.0696  -20.5656 N   0  0  0  0  0  0  0  0  0  0  0  0
    5.5572    2.7781  -21.0406 C   0  0  2  0  0  0  0  0  0  0  0  0
    2.9758    3.8661  -18.7359 N   0  0  0  0  0  0  0  0  0  0  0  0
    9.1264    3.2465  -18.0531 H   0  0  0  0  0  0  0  0  0  0  0  0
    7.5324    4.0565  -16.2865 H   0  0  0  0  0  0  0  0  0  0  0  0
    3.3496    3.0336  -21.1513 H   0  0  0  0  0  0  0  0  0  0  0  0
    2.0730    3.7992  -19.2665 H   0  0  0  0  0  0  0  0  0  0  0  0
    2.8525    4.1192  -17.7445 H   0  0  0  0  0  0  0  0  0  0  0  0
 41  1  1  6
  1  6  2  0
  1  2  1  0
  2  3  2  0
  2 24  1  0
  3  4  1  0
  3 25  1  0
  4  5  2  0
  4 13  1  0
  5  6  1  0
  5  7  1  0
  6 26  1  0
  7 12  2  0
  7  8  1  0
  8  9  2  0
  8 27  1  0
  9 10  1  0
 10 28  1  0
 10 11  2  0
 11 12  1  0
 12 29  1  0
 14 15  1  0
 14 19  2  0
 14 41  1  0
 15 30  1  0
 15 16  2  0
 16 17  1  0
 16 31  1  0
 17 18  2  0
 18 19  1  0
 18 20  1  0
 19 32  1  0
 20 22  1  1
 20 21  1  0
 20 23  1  0
 33 43  1  0
 33 38  2  0
 33 34  1  0
 34 35  2  0
 35 36  1  0
 35 41  1  0
 36 37  2  0
 36 39  1  0
 37 38  1  0
 38 44  1  0
 39 42  1  0
 39 40  2  0
 40 41  1  0
 40 45  1  0
 42 47  1  0
 42 46  1  0
M  CHG  1  40   1
M  END
