41
     RDKit          3D

 51 54  0  0  1  0  0  0  0  0999 V2000
   26.9470   15.3250    9.1860 C   0  0  0  0  0  0  0  0  0  0  0  0
   27.6320   14.0950    9.0140 C   0  0  0  0  0  0  0  0  0  0  0  0
   28.7000   14.0480    9.1690 H   0  0  0  0  0  0  0  0  0  0  0  0
   26.9220   12.9310    8.6410 C   0  0  0  0  0  0  0  0  0  0  0  0
   27.4460   11.9960    8.5080 H   0  0  0  0  0  0  0  0  0  0  0  0
   25.5210   12.9940    8.4420 C   0  0  0  0  0  0  0  0  0  0  0  0
   24.8260   14.2190    8.6190 C   0  0  0  0  0  0  0  0  0  0  0  0
   25.5440   15.3800    8.9820 C   0  0  0  0  0  0  0  0  0  0  0  0
   25.0210   16.3170    9.1050 H   0  0  0  0  0  0  0  0  0  0  0  0
   24.8500   11.8510    8.0940 O   0  0  0  0  0  0  0  0  0  0  0  0
   23.4360   11.7100    8.2520 C   0  0  1  0  0  0  0  0  0  0  0  0
   22.7180   13.0050    7.7980 C   0  0  2  0  0  0  0  0  0  0  0  0
   21.6740   12.9400    8.1030 H   0  0  0  0  0  0  0  0  0  0  0  0
   22.7760   13.0630    6.7110 H   0  0  0  0  0  0  0  0  0  0  0  0
   23.3110   14.3040    8.3820 C   0  0  2  0  0  0  0  0  0  0  0  0
   23.0360   15.4900    7.4390 C   0  0  0  0  0  0  0  0  0  0  0  0
   22.3290   16.4140    8.1240 N   0  0  0  0  0  0  0  0  0  0  0  0
   22.0880   15.9170    9.3720 C   0  0  0  0  0  0  0  0  0  0  0  0
   22.5740   14.7390    9.5680 N   0  0  0  0  0  0  0  0  0  0  0  0
   22.4630   14.1980   10.4140 H   0  0  0  0  0  0  0  0  0  0  0  0
   21.9330   17.7200    7.5940 C   0  0  2  0  0  0  0  0  0  0  0  0
   22.2760   17.8130    6.5640 H   0  0  0  0  0  0  0  0  0  0  0  0
   22.3810   18.5090    8.1990 H   0  0  0  0  0  0  0  0  0  0  0  0
   20.8470   17.8110    7.6250 H   0  0  0  0  0  0  0  0  0  0  0  0
   21.3210   16.6530   10.2630 N   0  0  0  0  0  0  0  0  0  0  0  0
   21.0940   16.2700   11.1700 H   0  0  0  0  0  0  0  0  0  0  0  0
   20.9900   17.5720   10.0050 H   0  0  0  0  0  0  0  0  0  0  0  0
   23.5150   15.6060    6.3060 O   0  0  0  0  0  0  0  0  0  0  0  0
   23.0150   10.5220    7.3590 C   0  0  2  0  0  0  0  0  0  0  0  0
   23.2670   10.7410    6.3210 H   0  0  0  0  0  0  0  0  0  0  0  0
   21.9400   10.3650    7.4470 H   0  0  0  0  0  0  0  0  0  0  0  0
   23.5410    9.6230    7.6790 H   0  0  0  0  0  0  0  0  0  0  0  0
   23.0750   11.3910    9.7230 C   0  0  2  0  0  0  0  0  0  0  0  0
   23.3700   12.2260   10.3590 H   0  0  0  0  0  0  0  0  0  0  0  0
   23.6010   10.4900   10.0390 H   0  0  0  0  0  0  0  0  0  0  0  0
   22.0000   11.2320    9.8070 H   0  0  0  0  0  0  0  0  0  0  0  0
   28.9780   16.3620    9.7230 C   0  0  0  0  0  0  0  0  0  0  0  0
   29.6260   15.3360    9.5810 O   0  0  0  0  0  0  0  0  0  0  0  0
   27.6310   16.4450    9.5440 N   0  0  0  0  0  0  0  0  0  0  0  0
   27.1160   17.3070    9.6680 H   0  0  0  0  0  0  0  0  0  0  0  0
   31.0700   19.1820   10.5810 C   0  0  0  0  0  0  0  0  0  0  0  0
   32.0060   19.6950   10.7500 H   0  0  0  0  0  0  0  0  0  0  0  0
   30.9210   17.8270   10.1880 C   0  0  0  0  0  0  0  0  0  0  0  0
   31.7230   17.1270   10.0040 H   0  0  0  0  0  0  0  0  0  0  0  0
   29.5320   17.5520   10.0780 C   0  0  0  0  0  0  0  0  0  0  0  0
   28.8230   18.7390   10.4030 O   0  0  0  0  0  0  0  0  0  0  0  0
   29.7740   19.7460   10.7140 C   0  0  0  0  0  0  0  0  0  0  0  0
   29.4780   21.0900   11.0950 C   0  0  2  0  0  0  0  0  0  0  0  0
   30.4080   21.6310   11.2710 H   0  0  0  0  0  0  0  0  0  0  0  0
   28.8810   21.0870   12.0070 H   0  0  0  0  0  0  0  0  0  0  0  0
   28.9200   21.5790   10.2970 H   0  0  0  0  0  0  0  0  0  0  0  0
  1  2  1  0
  1  8  2  0
  1 39  1  0
  2  3  1  0
  2  4  2  0
  4  5  1  0
  4  6  1  0
  6  7  2  0
  6 10  1  0
  7  8  1  0
  7 15  1  0
  8  9  1  0
 11 10  1  1
 11 12  1  0
 11 29  1  0
 11 33  1  0
 12 13  1  6
 12 14  1  0
 12 15  1  0
 15 16  1  6
 15 19  1  0
 16 17  1  0
 16 28  2  0
 17 18  1  0
 17 21  1  0
 18 19  2  0
 18 25  1  0
 19 20  1  0
 21 22  1  6
 21 23  1  0
 21 24  1  0
 25 26  1  0
 25 27  1  0
 29 30  1  6
 29 31  1  0
 29 32  1  0
 33 34  1  1
 33 35  1  0
 33 36  1  0
 37 38  2  0
 37 39  1  0
 37 45  1  0
 39 40  1  0
 41 42  1  0
 41 43  1  0
 41 47  2  0
 43 44  1  0
 43 45  2  0
 45 46  1  0
 46 47  1  0
 47 48  1  0
 48 49  1  1
 48 50  1  0
 48 51  1  0
M  CHG  1  19   1
M  END
