30_protonated
     RDKit          3D

 53 56  0  0  1  0  0  0  0  0999 V2000
   26.9470   15.3250    9.1860 C   0  0  0  0  0  0  0  0  0  0  0  0
   27.6320   14.0950    9.0140 C   0  0  0  0  0  0  0  0  0  0  0  0
   28.7000   14.0480    9.1690 H   0  0  0  0  0  0  0  0  0  0  0  0
   26.9220   12.9310    8.6410 C   0  0  0  0  0  0  0  0  0  0  0  0
   27.4460   11.9960    8.5080 H   0  0  0  0  0  0  0  0  0  0  0  0
   25.5210   12.9940    8.4420 C   0  0  0  0  0  0  0  0  0  0  0  0
   24.8260   14.2190    8.6190 C   0  0  0  0  0  0  0  0  0  0  0  0
   25.5440   15.3800    8.9820 C   0  0  0  0  0  0  0  0  0  0  0  0
   25.0210   16.3170    9.1050 H   0  0  0  0  0  0  0  0  0  0  0  0
   24.8500   11.8510    8.0940 O   0  0  0  0  0  0  0  0  0  0  0  0
   23.4360   11.7100    8.2520 C   0  0  1  0  0  0  0  0  0  0  0  0
   22.7180   13.0050    7.7980 C   0  0  1  0  0  0  0  0  0  0  0  0
   22.7754   13.0914    6.7029 H   0  0  0  0  0  0  0  0  0  0  0  0
   21.6633   12.9674    8.1080 H   0  0  0  0  0  0  0  0  0  0  0  0
   23.3110   14.3040    8.3820 C   0  0  2  0  0  0  0  0  0  0  0  0
   23.0360   15.4900    7.4390 C   0  0  0  0  0  0  0  0  0  0  0  0
   22.3290   16.4140    8.1240 N   0  0  0  0  0  0  0  0  0  0  0  0
   22.0880   15.9170    9.3720 C   0  0  0  0  0  0  0  0  0  0  0  0
   22.5740   14.7390    9.5680 N   0  0  0  0  0  0  0  0  0  0  0  0
   22.4003   14.2246   10.5246 H   0  0  0  0  0  0  0  0  0  0  0  0
   21.9330   17.7200    7.5940 C   0  0  2  0  0  0  0  0  0  0  0  0
   22.2794   17.8141    6.5542 H   0  0  0  0  0  0  0  0  0  0  0  0
   22.3848   18.5157    8.2045 H   0  0  0  0  0  0  0  0  0  0  0  0
   20.8372   17.8114    7.6251 H   0  0  0  0  0  0  0  0  0  0  0  0
   21.3210   16.6530   10.2630 N   0  0  0  0  0  0  0  0  0  0  0  0
   20.9604   17.6536    9.9823 H   0  0  0  0  0  0  0  0  0  0  0  0
   21.0733   16.2361   11.2503 H   0  0  0  0  0  0  0  0  0  0  0  0
   23.5150   15.6060    6.3060 O   0  0  0  0  0  0  0  0  0  0  0  0
   23.0150   10.5220    7.3590 C   0  0  2  0  0  0  0  0  0  0  0  0
   23.2690   10.7425    6.3117 H   0  0  0  0  0  0  0  0  0  0  0  0
   21.9301   10.3631    7.4476 H   0  0  0  0  0  0  0  0  0  0  0  0
   23.5461    9.6144    7.6818 H   0  0  0  0  0  0  0  0  0  0  0  0
   23.0750   11.3910    9.7230 C   0  0  2  0  0  0  0  0  0  0  0  0
   23.3724   12.2336   10.3645 H   0  0  0  0  0  0  0  0  0  0  0  0
   23.6060   10.4820   10.0420 H   0  0  0  0  0  0  0  0  0  0  0  0
   21.9900   11.2307    9.8078 H   0  0  0  0  0  0  0  0  0  0  0  0
   28.9310   18.1330   11.5680 C   0  0  1  0  0  0  0  0  0  0  0  0
   28.8043   17.5312   12.4800 H   0  0  0  0  0  0  0  0  0  0  0  0
   29.4571   19.0669   11.8151 H   0  0  0  0  0  0  0  0  0  0  0  0
   29.7470   17.3440   10.5470 C   0  0  1  0  0  0  0  0  0  0  0  0
   29.9619   17.9823    9.6773 H   0  0  0  0  0  0  0  0  0  0  0  0
   30.6924   17.0187   11.0057 H   0  0  0  0  0  0  0  0  0  0  0  0
   28.9960   16.1060   10.0620 C   0  0  1  0  0  0  0  0  0  0  0  0
   29.5675   15.6230    9.2557 H   0  0  0  0  0  0  0  0  0  0  0  0
   28.8730   15.4010   10.8974 H   0  0  0  0  0  0  0  0  0  0  0  0
   27.6130   16.4610    9.5250 N   0  0  2  0  0  0  0  0  0  0  0  0
   26.7980   17.2500   10.5450 C   0  0  1  0  0  0  0  0  0  0  0  0
   25.8526   17.5753   10.0863 H   0  0  0  0  0  0  0  0  0  0  0  0
   26.5831   16.6122   11.4151 H   0  0  0  0  0  0  0  0  0  0  0  0
   27.5480   18.4880   11.0300 C   0  0  1  0  0  0  0  0  0  0  0  0
   26.9556   18.9627   11.8261 H   0  0  0  0  0  0  0  0  0  0  0  0
   27.6510   19.1844   10.1848 H   0  0  0  0  0  0  0  0  0  0  0  0
   27.6895   17.0090    8.5743 H   0  0  0  0  0  0  0  0  0  0  0  0
  1  2  1  0
  1  8  2  0
  1 46  1  0
  2  3  1  0
  2  4  2  0
  4  5  1  0
  4  6  1  0
  6  7  2  0
  6 10  1  0
  7  8  1  0
  7 15  1  0
  8  9  1  0
 11 10  1  1
 11 12  1  0
 11 29  1  0
 11 33  1  0
 12 13  1  6
 12 14  1  0
 12 15  1  0
 15 16  1  6
 15 19  1  0
 16 17  1  0
 16 28  2  0
 17 18  1  0
 17 21  1  0
 18 19  2  0
 18 25  1  0
 19 20  1  0
 21 22  1  6
 21 23  1  0
 21 24  1  0
 25 26  1  0
 25 27  1  0
 29 30  1  6
 29 31  1  0
 29 32  1  0
 33 34  1  1
 33 35  1  0
 33 36  1  0
 37 38  1  1
 37 39  1  0
 37 40  1  0
 37 50  1  0
 40 41  1  6
 40 42  1  0
 40 43  1  0
 43 44  1  6
 43 45  1  0
 43 46  1  0
 46 47  1  0
 46 53  1  6
 47 48  1  6
 47 49  1  0
 47 50  1  0
 50 51  1  1
 50 52  1  0
M  CHG  2  19   1  46   1
M  END
