4
     RDKit          3D

 51 54  0  0  1  0  0  0  0  0999 V2000
    5.8275    1.3495  -21.2780 C   0  0  0  0  0  0  0  0  0  0  0  0
    6.6017    0.9355  -22.3763 C   0  0  0  0  0  0  0  0  0  0  0  0
    6.8758   -0.4131  -22.5939 C   0  0  0  0  0  0  0  0  0  0  0  0
    6.3908   -1.3759  -21.7163 C   0  0  0  0  0  0  0  0  0  0  0  0
    5.6224   -1.0020  -20.6083 C   0  0  0  0  0  0  0  0  0  0  0  0
    5.3391    0.3563  -20.4131 C   0  0  0  0  0  0  0  0  0  0  0  0
    5.1524   -2.0218  -19.6356 C   0  0  0  0  0  0  0  0  0  0  0  0
    6.0547   -2.8342  -18.9413 C   0  0  0  0  0  0  0  0  0  0  0  0
    5.6602   -3.7592  -18.0292 N   0  0  0  0  0  0  0  0  0  0  0  0
    4.3253   -3.8718  -17.8221 C   0  0  0  0  0  0  0  0  0  0  0  0
    3.3653   -3.1503  -18.4535 N   0  0  0  0  0  0  0  0  0  0  0  0
    3.7972   -2.2297  -19.3578 C   0  0  0  0  0  0  0  0  0  0  0  0
    6.6750   -2.6801  -21.9374 F   0  0  0  0  0  0  0  0  0  0  0  0
    5.8785    3.7575  -22.2157 C   0  0  0  0  0  0  0  0  0  0  0  0
    7.0682    4.5030  -22.2969 C   0  0  0  0  0  0  0  0  0  0  0  0
    7.3263    5.2596  -23.4398 C   0  0  0  0  0  0  0  0  0  0  0  0
    6.4721    5.3163  -24.4931 N   0  0  0  0  0  0  0  0  0  0  0  0
    5.3146    4.5984  -24.4238 C   0  0  0  0  0  0  0  0  0  0  0  0
    4.9938    3.8198  -23.3053 C   0  0  0  0  0  0  0  0  0  0  0  0
    4.3829    4.6858  -25.6400 C   0  0  1  0  0  0  0  0  0  0  0  0
    5.0063    4.2461  -26.7314 F   0  0  0  0  0  0  0  0  0  0  0  0
    3.2767    3.9581  -25.4927 F   0  0  0  0  0  0  0  0  0  0  0  0
    4.0286    5.9562  -25.8411 F   0  0  0  0  0  0  0  0  0  0  0  0
    7.0121    1.6497  -23.0749 H   0  0  0  0  0  0  0  0  0  0  0  0
    7.4656   -0.7197  -23.4454 H   0  0  0  0  0  0  0  0  0  0  0  0
    4.7651    0.6565  -19.5517 H   0  0  0  0  0  0  0  0  0  0  0  0
    7.1208   -2.7390  -19.1062 H   0  0  0  0  0  0  0  0  0  0  0  0
    4.0017   -4.5944  -17.0824 H   0  0  0  0  0  0  0  0  0  0  0  0
    3.0382   -1.6417  -19.8586 H   0  0  0  0  0  0  0  0  0  0  0  0
    7.8008    4.4818  -21.5023 H   0  0  0  0  0  0  0  0  0  0  0  0
    8.2441    5.8271  -23.5234 H   0  0  0  0  0  0  0  0  0  0  0  0
    4.0721    3.2536  -23.2881 H   0  0  0  0  0  0  0  0  0  0  0  0
    6.3151    3.2187  -19.8364 N   0  0  0  0  0  0  0  0  0  0  0  0
    5.5409    3.6145  -18.8966 C   0  0  0  0  0  0  0  0  0  0  0  0
    4.1222    3.5520  -19.3500 C   0  0  0  0  0  0  0  0  0  0  0  0
    4.1648    3.0947  -20.5813 N   0  0  0  0  0  0  0  0  0  0  0  0
    5.5351    2.8520  -21.0023 C   0  0  2  0  0  0  0  0  0  0  0  0
    3.0013    3.8663  -18.7132 N   0  0  0  0  0  0  0  0  0  0  0  0
    2.9105    4.1507  -17.7294 H   0  0  0  0  0  0  0  0  0  0  0  0
    2.0939    3.7869  -19.2168 H   0  0  0  0  0  0  0  0  0  0  0  0
    3.3224    3.0512  -21.1755 H   0  0  0  0  0  0  0  0  0  0  0  0
    5.9601    4.1044  -17.5075 C   0  0  1  0  0  0  0  0  0  0  0  0
    7.4232    3.7421  -17.1578 C   0  0  1  0  0  0  0  0  0  0  0  0
    8.1361    4.2174  -17.8339 H   0  0  0  0  0  0  0  0  0  0  0  0
    7.6763    4.0591  -16.1455 H   0  0  0  0  0  0  0  0  0  0  0  0
    7.5938    2.6653  -17.2054 H   0  0  0  0  0  0  0  0  0  0  0  0
    5.3078    3.6105  -16.7848 H   0  0  0  0  0  0  0  0  0  0  0  0
    5.7194    5.6230  -17.3830 C   0  0  1  0  0  0  0  0  0  0  0  0
    4.6720    5.8838  -17.5485 H   0  0  0  0  0  0  0  0  0  0  0  0
    5.9750    5.9793  -16.3844 H   0  0  0  0  0  0  0  0  0  0  0  0
    6.3186    6.1919  -18.0958 H   0  0  0  0  0  0  0  0  0  0  0  0
  1  6  2  0
  1  2  1  0
 37  1  1  6
  2  3  2  0
  2 24  1  0
  3  4  1  0
  3 25  1  0
  4  5  2  0
  4 13  1  0
  5  6  1  0
  5  7  1  0
  6 26  1  0
  7 12  2  0
  7  8  1  0
  8  9  2  0
  8 27  1  0
  9 10  1  0
 10 28  1  0
 10 11  2  0
 11 12  1  0
 12 29  1  0
 14 15  1  0
 14 19  2  0
 14 37  1  0
 15 30  1  0
 15 16  2  0
 16 17  1  0
 16 31  1  0
 17 18  2  0
 18 19  1  0
 18 20  1  0
 19 32  1  0
 20 22  1  1
 20 21  1  0
 20 23  1  0
 33 34  2  0
 33 37  1  0
 34 42  1  0
 34 35  1  0
 35 38  1  0
 35 36  2  0
 36 37  1  0
 36 41  1  0
 38 39  1  0
 38 40  1  0
 42 47  1  1
 42 48  1  0
 42 43  1  0
 43 45  1  1
 43 44  1  0
 43 46  1  0
 48 49  1  6
 48 50  1  0
 48 51  1  0
M  CHG  1  36   1
M  END
