6
     RDKit          3D

 46 49  0  0  1  0  0  0  0  0999 V2000
    5.8087    1.3033  -21.2931 C   0  0  0  0  0  0  0  0  0  0  0  0
    6.6190    0.8945  -22.3667 C   0  0  0  0  0  0  0  0  0  0  0  0
    6.8767   -0.4554  -22.5965 C   0  0  0  0  0  0  0  0  0  0  0  0
    6.3475   -1.4234  -21.7501 C   0  0  0  0  0  0  0  0  0  0  0  0
    5.5454   -1.0538  -20.6642 C   0  0  0  0  0  0  0  0  0  0  0  0
    5.2705    0.3050  -20.4643 C   0  0  0  0  0  0  0  0  0  0  0  0
    5.0391   -2.0732  -19.7082 C   0  0  0  0  0  0  0  0  0  0  0  0
    5.9102   -2.9417  -19.0420 C   0  0  0  0  0  0  0  0  0  0  0  0
    5.4855   -3.8584  -18.1356 N   0  0  0  0  0  0  0  0  0  0  0  0
    4.1514   -3.9034  -17.9025 C   0  0  0  0  0  0  0  0  0  0  0  0
    3.2185   -3.1235  -18.5045 N   0  0  0  0  0  0  0  0  0  0  0  0
    3.6806   -2.2146  -19.4057 C   0  0  0  0  0  0  0  0  0  0  0  0
    6.6260   -2.7276  -21.9769 F   0  0  0  0  0  0  0  0  0  0  0  0
    5.8952    3.7281  -22.1947 C   0  0  0  0  0  0  0  0  0  0  0  0
    7.0972    4.4521  -22.3190 C   0  0  0  0  0  0  0  0  0  0  0  0
    7.3351    5.2000  -23.4715 C   0  0  0  0  0  0  0  0  0  0  0  0
    6.4567    5.2613  -24.5027 N   0  0  0  0  0  0  0  0  0  0  0  0
    5.2958    4.5541  -24.4029 C   0  0  0  0  0  0  0  0  0  0  0  0
    4.9910    3.7883  -23.2697 C   0  0  0  0  0  0  0  0  0  0  0  0
    4.3497    4.6333  -25.6084 C   0  0  1  0  0  0  0  0  0  0  0  0
    4.9610    4.1807  -26.7020 F   0  0  0  0  0  0  0  0  0  0  0  0
    3.2439    3.9104  -25.4400 F   0  0  0  0  0  0  0  0  0  0  0  0
    3.9969    5.9024  -25.8208 F   0  0  0  0  0  0  0  0  0  0  0  0
    7.0719    1.6134  -23.0343 H   0  0  0  0  0  0  0  0  0  0  0  0
    7.4940   -0.7585  -23.4295 H   0  0  0  0  0  0  0  0  0  0  0  0
    4.6663    0.5980  -19.6216 H   0  0  0  0  0  0  0  0  0  0  0  0
    6.9772   -2.8980  -19.2223 H   0  0  0  0  0  0  0  0  0  0  0  0
    3.8059   -4.6203  -17.1668 H   0  0  0  0  0  0  0  0  0  0  0  0
    2.9442   -1.5793  -19.8818 H   0  0  0  0  0  0  0  0  0  0  0  0
    7.8657    4.4308  -21.5599 H   0  0  0  0  0  0  0  0  0  0  0  0
    8.2589    5.7530  -23.5839 H   0  0  0  0  0  0  0  0  0  0  0  0
    4.0655    3.2286  -23.2307 H   0  0  0  0  0  0  0  0  0  0  0  0
    6.3435    3.1741  -19.6895 C   0  0  0  0  0  0  0  0  0  0  0  0
    5.3315    3.6585  -18.7470 N   0  0  0  0  0  0  0  0  0  0  0  0
    4.1190    3.5756  -19.2918 C   0  0  0  0  0  0  0  0  0  0  0  0
    4.2080    3.0828  -20.5124 N   0  0  0  0  0  0  0  0  0  0  0  0
    5.5711    2.8084  -20.9819 C   0  0  2  0  0  0  0  0  0  0  0  0
    2.9635    3.9287  -18.7563 N   0  0  0  0  0  0  0  0  0  0  0  0
    2.7700    4.0512  -17.7513 H   0  0  0  0  0  0  0  0  0  0  0  0
    2.0936    3.8552  -19.3301 H   0  0  0  0  0  0  0  0  0  0  0  0
    3.3688    3.0715  -21.1148 H   0  0  0  0  0  0  0  0  0  0  0  0
    7.5551    3.0777  -19.4646 O   0  0  0  0  0  0  0  0  0  0  0  0
    5.6392    4.0976  -17.3793 C   0  0  1  0  0  0  0  0  0  0  0  0
    4.8374    4.7466  -17.0268 H   0  0  0  0  0  0  0  0  0  0  0  0
    5.7058    3.2192  -16.7382 H   0  0  0  0  0  0  0  0  0  0  0  0
    6.5838    4.6407  -17.3707 H   0  0  0  0  0  0  0  0  0  0  0  0
  1  6  2  0
  1  2  1  0
 37  1  1  6
  2  3  2  0
  2 24  1  0
  3  4  1  0
  3 25  1  0
  4  5  2  0
  4 13  1  0
  5  6  1  0
  5  7  1  0
  6 26  1  0
  7 12  2  0
  7  8  1  0
  8  9  2  0
  8 27  1  0
  9 10  1  0
 10 28  1  0
 10 11  2  0
 11 12  1  0
 12 29  1  0
 14 15  1  0
 14 19  2  0
 14 37  1  0
 15 30  1  0
 15 16  2  0
 16 17  1  0
 16 31  1  0
 17 18  2  0
 18 19  1  0
 18 20  1  0
 19 32  1  0
 20 22  1  1
 20 21  1  0
 20 23  1  0
 33 42  2  0
 33 34  1  0
 33 37  1  0
 34 43  1  0
 34 35  1  0
 35 38  1  0
 35 36  2  0
 36 37  1  0
 36 41  1  0
 38 39  1  0
 38 40  1  0
 43 46  1  6
 43 44  1  0
 43 45  1  0
M  CHG  1  36   1
M  END
