5
     RDKit          3D

 43 46  0  0  1  0  0  0  0  0999 V2000
    5.8078    1.3214  -21.2996 C   0  0  0  0  0  0  0  0  0  0  0  0
    6.6317    0.9179  -22.3639 C   0  0  0  0  0  0  0  0  0  0  0  0
    6.8993   -0.4306  -22.5906 C   0  0  0  0  0  0  0  0  0  0  0  0
    6.3635   -1.4015  -21.7514 C   0  0  0  0  0  0  0  0  0  0  0  0
    5.5435   -1.0364  -20.6771 C   0  0  0  0  0  0  0  0  0  0  0  0
    5.2564    0.3209  -20.4834 C   0  0  0  0  0  0  0  0  0  0  0  0
    5.0316   -2.0584  -19.7259 C   0  0  0  0  0  0  0  0  0  0  0  0
    5.8993   -2.9289  -19.0576 C   0  0  0  0  0  0  0  0  0  0  0  0
    5.4701   -3.8479  -18.1557 N   0  0  0  0  0  0  0  0  0  0  0  0
    4.1351   -3.8928  -17.9282 C   0  0  0  0  0  0  0  0  0  0  0  0
    3.2054   -3.1103  -18.5318 N   0  0  0  0  0  0  0  0  0  0  0  0
    3.6718   -2.1998  -19.4293 C   0  0  0  0  0  0  0  0  0  0  0  0
    6.6522   -2.7042  -21.9744 F   0  0  0  0  0  0  0  0  0  0  0  0
    5.8500    3.7343  -22.2193 C   0  0  0  0  0  0  0  0  0  0  0  0
    6.9944    4.5488  -22.2674 C   0  0  0  0  0  0  0  0  0  0  0  0
    7.2342    5.3258  -23.4010 C   0  0  0  0  0  0  0  0  0  0  0  0
    6.3977    5.3463  -24.4696 N   0  0  0  0  0  0  0  0  0  0  0  0
    5.2751    4.5732  -24.4238 C   0  0  0  0  0  0  0  0  0  0  0  0
    4.9777    3.7649  -23.3196 C   0  0  0  0  0  0  0  0  0  0  0  0
    4.3518    4.6404  -25.6466 C   0  0  1  0  0  0  0  0  0  0  0  0
    4.9898    4.1988  -26.7287 F   0  0  0  0  0  0  0  0  0  0  0  0
    3.2523    3.9028  -25.4986 F   0  0  0  0  0  0  0  0  0  0  0  0
    3.9834    5.9044  -25.8611 F   0  0  0  0  0  0  0  0  0  0  0  0
    7.0863    1.6406  -23.0263 H   0  0  0  0  0  0  0  0  0  0  0  0
    7.5286   -0.7305  -23.4158 H   0  0  0  0  0  0  0  0  0  0  0  0
    4.6384    0.6103  -19.6502 H   0  0  0  0  0  0  0  0  0  0  0  0
    6.9673   -2.8854  -19.2323 H   0  0  0  0  0  0  0  0  0  0  0  0
    3.7866   -4.6122  -17.1962 H   0  0  0  0  0  0  0  0  0  0  0  0
    2.9372   -1.5639  -19.9072 H   0  0  0  0  0  0  0  0  0  0  0  0
    7.7109    4.5703  -21.4593 H   0  0  0  0  0  0  0  0  0  0  0  0
    8.1205    5.9441  -23.4630 H   0  0  0  0  0  0  0  0  0  0  0  0
    4.0832    3.1562  -23.3197 H   0  0  0  0  0  0  0  0  0  0  0  0
    6.2499    3.1881  -19.8074 N   0  0  0  0  0  0  0  0  0  0  0  0
    5.4635    3.5701  -18.7947 C   0  0  0  0  0  0  0  0  0  0  0  0
    4.1014    3.5048  -19.3259 C   0  0  0  0  0  0  0  0  0  0  0  0
    4.1620    3.0713  -20.5716 N   0  0  0  0  0  0  0  0  0  0  0  0
    5.5283    2.8189  -21.0142 C   0  0  2  0  0  0  0  0  0  0  0  0
    2.9783    3.8205  -18.6897 N   0  0  0  0  0  0  0  0  0  0  0  0
    2.0726    3.7569  -19.2009 H   0  0  0  0  0  0  0  0  0  0  0  0
    2.8901    4.1090  -17.7073 H   0  0  0  0  0  0  0  0  0  0  0  0
    3.3219    3.0595  -21.1719 H   0  0  0  0  0  0  0  0  0  0  0  0
    5.8299    3.9124  -17.6709 O   0  0  0  0  0  0  0  0  0  0  0  0
    7.2519    3.1212  -19.7275 H   0  0  0  0  0  0  0  0  0  0  0  0
  1  6  2  0
  1  2  1  0
 37  1  1  6
  2  3  2  0
  2 24  1  0
  3  4  1  0
  3 25  1  0
  4  5  2  0
  4 13  1  0
  5  6  1  0
  5  7  1  0
  6 26  1  0
  7 12  2  0
  7  8  1  0
  8  9  2  0
  8 27  1  0
  9 10  1  0
 10 28  1  0
 10 11  2  0
 11 12  1  0
 12 29  1  0
 14 15  1  0
 14 19  2  0
 14 37  1  0
 15 30  1  0
 15 16  2  0
 16 17  1  0
 16 31  1  0
 17 18  2  0
 18 19  1  0
 18 20  1  0
 19 32  1  0
 20 22  1  1
 20 21  1  0
 20 23  1  0
 33 43  1  0
 33 34  1  0
 33 37  1  0
 34 42  2  0
 34 35  1  0
 35 38  1  0
 35 36  2  0
 36 37  1  0
 36 41  1  0
 38 40  1  0
 38 39  1  0
M  CHG  1  36   1
M  END
