17509
     RDKit          3D

 58 63  0  0  1  0  0  0  0  0999 V2000
    3.7616   10.2599   20.5773 O   0  0  0  0  0  0  0  0  0  0  0  0
    4.2814    9.5137   19.7559 C   0  0  0  0  0  0  0  0  0  0  0  0
    5.5613    9.7356   19.4080 N   0  0  0  0  0  0  0  0  0  0  0  0
    6.2788    8.9294   18.5390 C   0  0  0  0  0  0  0  0  0  0  0  0
    7.6184    9.2323   18.2421 C   0  0  0  0  0  0  0  0  0  0  0  0
    8.3392    8.4048   17.3639 C   0  0  0  0  0  0  0  0  0  0  0  0
    7.7340    7.2661   16.7896 C   0  0  0  0  0  0  0  0  0  0  0  0
    8.5070    6.3726   15.9092 N   0  0  0  0  0  0  0  0  0  0  0  0
    9.7824    6.5503   15.4567 C   0  0  0  0  0  0  0  0  0  0  0  0
   10.0568    5.4464   14.6824 C   0  0  0  0  0  0  0  0  0  0  0  0
    9.0373    4.5619   14.6341 N   0  0  0  0  0  0  0  0  0  0  0  0
    8.0859    5.1256   15.3633 C   0  0  0  0  0  0  0  0  0  0  0  0
    6.3813    6.9889   17.0832 C   0  0  0  0  0  0  0  0  0  0  0  0
    5.6412    7.8125   17.9573 C   0  0  0  0  0  0  0  0  0  0  0  0
    4.2537    7.5495   18.2508 C   0  0  0  0  0  0  0  0  0  0  0  0
    3.5977    8.3791   19.1037 C   0  0  0  0  0  0  0  0  0  0  0  0
    2.1861    8.1357   19.3625 C   0  0  0  0  0  0  0  0  0  0  0  0
    1.4098    7.0994   18.9116 C   0  0  0  0  0  0  0  0  0  0  0  0
    0.1096    7.2618   19.4657 C   0  0  0  0  0  0  0  0  0  0  0  0
   -1.0823    6.5072   19.4258 C   0  0  0  0  0  0  0  0  0  0  0  0
   -2.2366    6.9226   20.1234 C   0  0  0  0  0  0  0  0  0  0  0  0
   -3.4456    6.0074   20.1629 C   0  0  2  0  0  0  0  0  0  0  0  0
   -3.6149    5.3649   21.4916 N   0  0  1  0  0  0  0  0  0  0  0  0
   -4.8320    4.5136   21.5339 C   0  0  1  0  0  0  0  0  0  0  0  0
   -5.0950    3.9852   22.9556 C   0  0  1  0  0  0  0  0  0  0  0  0
   -3.8760    3.2296   23.5028 C   0  0  1  0  0  0  0  0  0  0  0  0
   -2.6272    4.1135   23.4043 C   0  0  1  0  0  0  0  0  0  0  0  0
   -2.4215    4.6088   21.9656 C   0  0  1  0  0  0  0  0  0  0  0  0
   -2.2323    8.1311   20.8523 C   0  0  0  0  0  0  0  0  0  0  0  0
   -1.0615    8.9082   20.9105 C   0  0  0  0  0  0  0  0  0  0  0  0
    0.0874    8.4605   20.2368 C   0  0  0  0  0  0  0  0  0  0  0  0
    1.3687    8.9475   20.1287 N   0  0  0  0  0  0  0  0  0  0  0  0
    6.0105   10.5551   19.7897 H   0  0  0  0  0  0  0  0  0  0  0  0
    8.0963   10.0953   18.6824 H   0  0  0  0  0  0  0  0  0  0  0  0
    9.3671    8.6434   17.1334 H   0  0  0  0  0  0  0  0  0  0  0  0
   10.3804    7.4157   15.7027 H   0  0  0  0  0  0  0  0  0  0  0  0
   10.9547    5.2058   14.1325 H   0  0  0  0  0  0  0  0  0  0  0  0
    7.1144    4.6826   15.5294 H   0  0  0  0  0  0  0  0  0  0  0  0
    5.8845    6.1411   16.6350 H   0  0  0  0  0  0  0  0  0  0  0  0
    3.8156    6.6837   17.7755 H   0  0  0  0  0  0  0  0  0  0  0  0
    1.7010    6.2902   18.2582 H   0  0  0  0  0  0  0  0  0  0  0  0
   -1.1019    5.5961   18.8458 H   0  0  0  0  0  0  0  0  0  0  0  0
   -3.3064    5.2436   19.3962 H   0  0  0  0  0  0  0  0  0  0  0  0
   -4.3491    6.5560   19.8916 H   0  0  0  0  0  0  0  0  0  0  0  0
   -5.6995    5.0889   21.2105 H   0  0  0  0  0  0  0  0  0  0  0  0
   -4.7366    3.6735   20.8460 H   0  0  0  0  0  0  0  0  0  0  0  0
   -5.3435    4.8142   23.6182 H   0  0  0  0  0  0  0  0  0  0  0  0
   -5.9642    3.3275   22.9512 H   0  0  0  0  0  0  0  0  0  0  0  0
   -4.0487    2.9583   24.5443 H   0  0  0  0  0  0  0  0  0  0  0  0
   -3.7256    2.2987   22.9562 H   0  0  0  0  0  0  0  0  0  0  0  0
   -2.7191    4.9638   24.0801 H   0  0  0  0  0  0  0  0  0  0  0  0
   -1.7509    3.5555   23.7341 H   0  0  0  0  0  0  0  0  0  0  0  0
   -2.2187    3.7619   21.3101 H   0  0  0  0  0  0  0  0  0  0  0  0
   -1.5398    5.2489   21.9355 H   0  0  0  0  0  0  0  0  0  0  0  0
   -3.1237    8.4629   21.3648 H   0  0  0  0  0  0  0  0  0  0  0  0
   -1.0497    9.8339   21.4668 H   0  0  0  0  0  0  0  0  0  0  0  0
    1.6871    9.7988   20.5683 H   0  0  0  0  0  0  0  0  0  0  0  0
   -3.8050    6.0639   22.1955 H   0  0  0  0  0  0  0  0  0  0  0  0
  1  2  2  0
  2 16  1  0
  2  3  1  0
  3  4  1  0
  3 33  1  0
  4 14  2  0
  4  5  1  0
  5  6  2  0
  5 34  1  0
  6  7  1  0
  6 35  1  0
  7  8  1  0
  7 13  2  0
  8 12  1  0
  8  9  1  0
  9 10  2  0
  9 36  1  0
 10 11  1  0
 10 37  1  0
 11 12  2  0
 12 38  1  0
 13 14  1  0
 13 39  1  0
 14 15  1  0
 15 16  2  0
 15 40  1  0
 16 17  1  0
 17 32  1  0
 17 18  2  0
 18 19  1  0
 18 41  1  0
 19 31  2  0
 19 20  1  0
 20 21  2  0
 20 42  1  0
 21 22  1  0
 21 29  1  0
 22 23  1  0
 22 43  1  6
 22 44  1  0
 23 28  1  0
 23 24  1  0
 23 58  1  1
 24 25  1  0
 24 45  1  6
 24 46  1  0
 25 26  1  0
 25 47  1  1
 25 48  1  0
 26 27  1  0
 26 49  1  1
 26 50  1  0
 27 28  1  0
 27 51  1  1
 27 52  1  0
 28 53  1  6
 28 54  1  0
 29 30  2  0
 29 55  1  0
 30 31  1  0
 30 56  1  0
 31 32  1  0
 32 57  1  0
M  CHG  1  23   1
M  END
