28charg
     RDKit          3D

 54 58  0  0  1  0  0  0  0  0999 V2000
   29.6783    8.6041   -6.3399 C   0  0  0  0  0  0  0  0  0  0  0  0
   28.8994    8.2121   -5.2835 N   0  0  0  0  0  0  0  0  0  0  0  0
   28.6584    6.9663   -5.0517 C   0  0  0  0  0  0  0  0  0  0  0  0
   29.1860    6.0319   -5.9026 N   0  0  0  0  0  0  0  0  0  0  0  0
   29.9278    6.2743   -7.0123 C   0  0  0  0  0  0  0  0  0  0  0  0
   30.1943    7.7045   -7.2471 C   0  0  0  0  0  0  0  0  0  0  0  0
   29.8964    9.9711   -6.4138 N   0  0  0  0  0  0  0  0  0  0  0  0
   27.8571    6.5469   -3.9387 N   0  0  0  0  0  0  0  0  0  0  0  0
   30.2956    5.3237   -7.6944 O   0  0  0  0  0  0  0  0  0  0  0  0
   31.0114    8.1123   -8.4254 C   0  0  0  0  0  0  0  0  0  0  0  0
   29.0915   11.0904   -5.9215 C   0  0  1  0  0  0  0  0  0  0  0  0
   29.0599   11.1124   -4.3723 C   0  0  2  0  0  0  0  0  0  0  0  0
   28.3768   12.3968   -3.8684 C   0  0  1  0  0  0  0  0  0  0  0  0
   29.0173   13.6859   -4.4114 N   0  0  1  0  0  0  0  0  0  0  0  0
   28.9992   13.6446   -5.9484 C   0  0  2  0  0  0  0  0  0  0  0  0
   29.7056   12.3893   -6.4867 C   0  0  2  0  0  0  0  0  0  0  0  0
   26.8966    7.4509   -3.2893 C   0  0  2  0  0  0  0  0  0  0  0  0
   26.8139    7.1796   -1.7766 C   0  0  2  0  0  0  0  0  0  0  0  0
   26.5500    5.8049   -1.5183 O   0  0  0  0  0  0  0  0  0  0  0  0
   27.5022    4.9252   -2.1061 C   0  0  2  0  0  0  0  0  0  0  0  0
   27.5813    5.1371   -3.6310 C   0  0  2  0  0  0  0  0  0  0  0  0
   32.2476    7.0921   -9.1710 S   0  0  0  0  0  0  0  0  0  0  0  0
   32.7016    8.4440  -10.1948 C   0  0  0  0  0  0  0  0  0  0  0  0
   31.8319    9.5261   -9.9325 C   0  0  0  0  0  0  0  0  0  0  0  0
   30.9022    9.2969   -8.9735 N   0  0  0  0  0  0  0  0  0  0  0  0
   33.7437    8.5701  -11.1190 C   0  0  0  0  0  0  0  0  0  0  0  0
   33.9070    9.7937  -11.7661 C   0  0  0  0  0  0  0  0  0  0  0  0
   33.0501   10.8611  -11.5195 C   0  0  0  0  0  0  0  0  0  0  0  0
   31.9980   10.7400  -10.6138 C   0  0  0  0  0  0  0  0  0  0  0  0
   29.0013    5.0594   -5.7116 H   0  0  0  0  0  0  0  0  0  0  0  0
   30.3722   10.2393   -7.2643 H   0  0  0  0  0  0  0  0  0  0  0  0
   28.0822   10.9725   -6.3190 H   0  0  0  0  0  0  0  0  0  0  0  0
   30.0525   11.0996   -3.9253 H   0  0  0  0  0  0  0  0  0  0  0  0
   28.4660   10.3146   -3.9307 H   0  0  0  0  0  0  0  0  0  0  0  0
   27.3142   12.3672   -4.1514 H   0  0  0  0  0  0  0  0  0  0  0  0
   29.4847   14.5385   -6.3428 H   0  0  0  0  0  0  0  0  0  0  0  0
   27.9700   13.6775   -6.3084 H   0  0  0  0  0  0  0  0  0  0  0  0
   29.6538   12.3850   -7.5773 H   0  0  0  0  0  0  0  0  0  0  0  0
   30.7661   12.4466   -6.2304 H   0  0  0  0  0  0  0  0  0  0  0  0
   25.9133    7.3251   -3.7444 H   0  0  0  0  0  0  0  0  0  0  0  0
   27.1623    8.4974   -3.4370 H   0  0  0  0  0  0  0  0  0  0  0  0
   26.0095    7.7765   -1.3482 H   0  0  0  0  0  0  0  0  0  0  0  0
   27.7306    7.4947   -1.2749 H   0  0  0  0  0  0  0  0  0  0  0  0
   27.2154    3.8963   -1.8874 H   0  0  0  0  0  0  0  0  0  0  0  0
   28.4811    5.0750   -1.6482 H   0  0  0  0  0  0  0  0  0  0  0  0
   28.3586    4.4824   -4.0251 H   0  0  0  0  0  0  0  0  0  0  0  0
   26.6482    4.8290   -4.1043 H   0  0  0  0  0  0  0  0  0  0  0  0
   34.4191    7.7499  -11.3134 H   0  0  0  0  0  0  0  0  0  0  0  0
   34.7158    9.9219  -12.4692 H   0  0  0  0  0  0  0  0  0  0  0  0
   33.2127   11.7988  -12.0289 H   0  0  0  0  0  0  0  0  0  0  0  0
   31.3481   11.5804  -10.4193 H   0  0  0  0  0  0  0  0  0  0  0  0
   28.4410   12.4145   -2.7805 H   0  0  0  0  0  0  0  0  0  0  0  0
   28.4932   14.4857   -4.0862 H   0  0  0  0  0  0  0  0  0  0  0  0
   29.9713   13.7522   -4.0863 H   0  0  0  0  0  0  0  0  0  0  0  0
  1  2  1  0
  1  6  2  0
  1  7  1  0
  2  3  2  0
  3  4  1  0
  3  8  1  0
  4  5  1  0
  4 30  1  0
  5  6  1  0
  5  9  2  0
  6 10  1  0
  7 11  1  0
  7 31  1  0
  8 17  1  0
  8 21  1  0
 10 22  1  0
 10 25  2  0
 11 12  1  0
 11 16  1  0
 11 32  1  6
 12 13  1  0
 12 33  1  1
 12 34  1  0
 13 14  1  0
 13 35  1  1
 13 52  1  0
 14 15  1  0
 14 53  1  6
 14 54  1  0
 15 16  1  0
 15 36  1  6
 15 37  1  0
 16 38  1  6
 16 39  1  0
 17 18  1  0
 17 40  1  6
 17 41  1  0
 18 19  1  0
 18 42  1  1
 18 43  1  0
 19 20  1  0
 20 21  1  0
 20 44  1  6
 20 45  1  0
 21 46  1  6
 21 47  1  0
 22 23  1  0
 23 24  2  0
 23 26  1  0
 24 25  1  0
 24 29  1  0
 26 27  2  0
 26 48  1  0
 27 28  1  0
 27 49  1  0
 28 29  2  0
 28 50  1  0
 29 51  1  0
M  CHG  1  14   1
M  END
