18
     RDKit          3D

 46 49  0  0  1  0  0  0  0  0999 V2000
    8.3165   10.5486   22.2926 F   0  0  0  0  0  0  0  0  0  0  0  0
    7.1511   10.7050   22.9331 C   0  0  0  0  0  0  0  0  0  0  0  0
    6.7726   11.9093   23.5612 C   0  0  0  0  0  0  0  0  0  0  0  0
    5.5395   12.0012   24.2584 C   0  0  0  0  0  0  0  0  0  0  0  0
    5.2105   13.2968   24.9013 C   0  0  0  0  0  0  0  0  0  0  0  0
    3.9379   13.8767   24.7215 C   0  0  0  0  0  0  0  0  0  0  0  0
    3.5863   15.0865   25.3364 C   0  0  0  0  0  0  0  0  0  0  0  0
    4.5194   15.7615   26.1384 C   0  0  0  0  0  0  0  0  0  0  0  0
    5.8078   15.2217   26.3030 C   0  0  0  0  0  0  0  0  0  0  0  0
    6.1592   14.0028   25.6860 C   0  0  0  0  0  0  0  0  0  0  0  0
    6.3189    9.5930   22.9571 C   0  0  0  0  0  0  0  0  0  0  0  0
    5.0987    9.6632   23.6230 C   0  0  0  0  0  0  0  0  0  0  0  0
    4.6933   10.8430   24.2907 C   0  0  0  0  0  0  0  0  0  0  0  0
    3.3479   10.7884   25.0253 C   0  0  2  0  0  0  0  0  0  0  0  0
    3.2649    9.6139   26.0252 C   0  0  2  0  0  0  0  0  0  0  0  0
    1.8960    9.4338   26.6925 C   0  0  0  0  0  0  0  0  0  0  0  0
    1.7311    8.7281   27.7359 N   0  0  0  0  0  0  0  0  0  0  0  0
    2.9361    8.1710   28.2340 O   0  0  0  0  0  0  0  0  0  0  0  0
    0.7239   10.1063   26.0383 C   0  0  0  0  0  0  0  0  0  0  0  0
    2.1730   10.7714   24.0319 C   0  0  2  0  0  0  0  0  0  0  0  0
    0.8475   10.7252   24.7635 C   0  0  0  0  0  0  0  0  0  0  0  0
   -0.1922   11.2958   24.1167 N   0  0  0  0  0  0  0  0  0  0  0  0
   -1.3707   11.2495   24.7317 C   0  0  0  0  0  0  0  0  0  0  0  0
   -2.4320   11.7952   24.0588 N   0  0  0  0  0  0  0  0  0  0  0  0
   -1.6166   10.7220   25.9281 N   0  0  0  0  0  0  0  0  0  0  0  0
   -0.5881   10.1544   26.5947 C   0  0  0  0  0  0  0  0  0  0  0  0
   -0.9525    9.5705   27.9620 C   0  0  1  0  0  0  0  0  0  0  0  0
    7.4253   12.7740   23.5037 H   0  0  0  0  0  0  0  0  0  0  0  0
    3.2070   13.3852   24.1016 H   0  0  0  0  0  0  0  0  0  0  0  0
    4.2478   16.6871   26.6238 H   0  0  0  0  0  0  0  0  0  0  0  0
    6.5261   15.7539   26.9065 H   0  0  0  0  0  0  0  0  0  0  0  0
    7.1618   13.6095   25.8109 H   0  0  0  0  0  0  0  0  0  0  0  0
    6.6509    8.6902   22.4706 H   0  0  0  0  0  0  0  0  0  0  0  0
    4.4963    8.7718   23.6281 H   0  0  0  0  0  0  0  0  0  0  0  0
    3.2385   11.6677   25.6514 H   0  0  0  0  0  0  0  0  0  0  0  0
    4.0421    9.7403   26.7751 H   0  0  0  0  0  0  0  0  0  0  0  0
    3.4798    8.6732   25.5253 H   0  0  0  0  0  0  0  0  0  0  0  0
    2.6053    7.5901   28.9101 H   0  0  0  0  0  0  0  0  0  0  0  0
    2.2248    9.8950   23.3930 H   0  0  0  0  0  0  0  0  0  0  0  0
    2.1931   11.6217   23.3477 H   0  0  0  0  0  0  0  0  0  0  0  0
   -3.3783   11.7773   24.4409 H   0  0  0  0  0  0  0  0  0  0  0  0
   -2.3111   12.2132   23.1479 H   0  0  0  0  0  0  0  0  0  0  0  0
   -1.9824    9.7273   28.2614 H   0  0  0  0  0  0  0  0  0  0  0  0
   -0.7782    8.5009   27.9839 H   0  0  0  0  0  0  0  0  0  0  0  0
   -0.3124    9.9757   28.7384 H   0  0  0  0  0  0  0  0  0  0  0  0
    2.5883   15.4703   25.2081 H   0  0  0  0  0  0  0  0  0  0  0  0
  1  2  1  0
  2  3  1  0
  2 11  2  0
  3  4  2  0
  3 28  1  0
  4  5  1  0
  4 13  1  0
  5  6  1  0
  5 10  2  0
  6  7  2  0
  6 29  1  0
  7  8  1  0
  7 46  1  0
  8  9  2  0
  8 30  1  0
  9 10  1  0
  9 31  1  0
 10 32  1  0
 11 12  1  0
 11 33  1  0
 12 13  2  0
 12 34  1  0
 13 14  1  0
 14 15  1  0
 14 20  1  0
 14 35  1  1
 15 16  1  0
 15 36  1  1
 15 37  1  0
 16 17  2  0
 16 19  1  0
 17 18  1  0
 18 38  1  0
 19 21  1  0
 19 26  2  0
 20 21  1  0
 20 39  1  6
 20 40  1  0
 21 22  2  0
 22 23  1  0
 23 24  1  0
 23 25  2  0
 24 41  1  0
 24 42  1  0
 25 26  1  0
 26 27  1  0
 27 43  1  1
 27 44  1  0
 27 45  1  0
M  END
