15
     RDKit          3D

 46 49  0  0  1  0  0  0  0  0999 V2000
    8.1344   10.7043   22.3964 H   0  0  0  0  0  0  0  0  0  0  0  0
    7.1877   10.7447   22.9136 C   0  0  0  0  0  0  0  0  0  0  0  0
    6.7891   11.9164   23.5746 C   0  0  0  0  0  0  0  0  0  0  0  0
    5.5572   11.9935   24.2713 C   0  0  0  0  0  0  0  0  0  0  0  0
    5.2353   13.2797   24.9338 C   0  0  0  0  0  0  0  0  0  0  0  0
    3.9718   13.8732   24.7574 C   0  0  0  0  0  0  0  0  0  0  0  0
    3.6273   15.0768   25.3942 C   0  0  0  0  0  0  0  0  0  0  0  0
    4.5625   15.7287   26.2126 C   0  0  0  0  0  0  0  0  0  0  0  0
    5.8428   15.1740   26.3767 C   0  0  0  0  0  0  0  0  0  0  0  0
    6.1868   13.9654   25.7363 C   0  0  0  0  0  0  0  0  0  0  0  0
    6.3493    9.6182   22.9260 C   0  0  0  0  0  0  0  0  0  0  0  0
    5.1209    9.6755   23.5980 C   0  0  0  0  0  0  0  0  0  0  0  0
    4.7065   10.8453   24.2811 C   0  0  0  0  0  0  0  0  0  0  0  0
    3.3536   10.7921   25.0151 C   0  0  2  0  0  0  0  0  0  0  0  0
    3.2678    9.6186   26.0185 C   0  0  2  0  0  0  0  0  0  0  0  0
    1.8992    9.4329   26.6930 C   0  0  0  0  0  0  0  0  0  0  0  0
    1.7369    8.7303   27.7443 N   0  0  0  0  0  0  0  0  0  0  0  0
    2.9360    8.1680   28.2629 O   0  0  0  0  0  0  0  0  0  0  0  0
    0.7236   10.1073   26.0360 C   0  0  0  0  0  0  0  0  0  0  0  0
    2.1708   10.7751   24.0279 C   0  0  2  0  0  0  0  0  0  0  0  0
    0.8398   10.7313   24.7589 C   0  0  0  0  0  0  0  0  0  0  0  0
   -0.2039   11.2998   24.1178 N   0  0  0  0  0  0  0  0  0  0  0  0
   -1.3837   11.2566   24.7295 C   0  0  0  0  0  0  0  0  0  0  0  0
   -2.4448   11.7975   24.0552 N   0  0  0  0  0  0  0  0  0  0  0  0
   -1.6225   10.7235   25.9296 N   0  0  0  0  0  0  0  0  0  0  0  0
   -0.5896   10.1586   26.5902 C   0  0  0  0  0  0  0  0  0  0  0  0
   -0.9424    9.5729   27.9621 C   0  0  1  0  0  0  0  0  0  0  0  0
    7.4368   12.7811   23.5371 H   0  0  0  0  0  0  0  0  0  0  0  0
    3.2323   13.3960   24.1354 H   0  0  0  0  0  0  0  0  0  0  0  0
    6.5499   15.6972   27.0015 H   0  0  0  0  0  0  0  0  0  0  0  0
    7.1826   13.5606   25.8651 H   0  0  0  0  0  0  0  0  0  0  0  0
    6.6496    8.7107   22.4265 H   0  0  0  0  0  0  0  0  0  0  0  0
    4.4977    8.7957   23.6005 H   0  0  0  0  0  0  0  0  0  0  0  0
    3.2501   11.6764   25.6365 H   0  0  0  0  0  0  0  0  0  0  0  0
    4.0430    9.7431   26.7690 H   0  0  0  0  0  0  0  0  0  0  0  0
    3.4897    8.6847   25.5095 H   0  0  0  0  0  0  0  0  0  0  0  0
    2.5955    7.5716   28.9229 H   0  0  0  0  0  0  0  0  0  0  0  0
    2.2322    9.8959   23.3920 H   0  0  0  0  0  0  0  0  0  0  0  0
    2.2052   11.6256   23.3435 H   0  0  0  0  0  0  0  0  0  0  0  0
   -3.3940   11.7843   24.4291 H   0  0  0  0  0  0  0  0  0  0  0  0
   -2.3241   12.2194   23.1441 H   0  0  0  0  0  0  0  0  0  0  0  0
   -1.9715    9.7160   28.2711 H   0  0  0  0  0  0  0  0  0  0  0  0
   -0.7565    8.5041   27.9905 H   0  0  0  0  0  0  0  0  0  0  0  0
   -0.3062    9.9828   28.7387 H   0  0  0  0  0  0  0  0  0  0  0  0
    2.6347   15.4756   25.2682 H   0  0  0  0  0  0  0  0  0  0  0  0
    4.2899   16.6511   26.7055 H   0  0  0  0  0  0  0  0  0  0  0  0
  1  2  1  0
  2  3  1  0
  2 11  2  0
  3  4  2  0
  3 28  1  0
  4  5  1  0
  4 13  1  0
  5  6  1  0
  5 10  2  0
  6  7  2  0
  6 29  1  0
  7  8  1  0
  7 45  1  0
  8  9  2  0
  8 46  1  0
  9 10  1  0
  9 30  1  0
 10 31  1  0
 11 12  1  0
 11 32  1  0
 12 13  2  0
 12 33  1  0
 13 14  1  0
 14 15  1  0
 14 20  1  0
 14 34  1  1
 15 16  1  0
 15 35  1  1
 15 36  1  0
 16 17  2  0
 16 19  1  0
 17 18  1  0
 18 37  1  0
 19 21  1  0
 19 26  2  0
 20 21  1  0
 20 38  1  6
 20 39  1  0
 21 22  2  0
 22 23  1  0
 23 24  1  0
 23 25  2  0
 24 40  1  0
 24 41  1  0
 25 26  1  0
 26 27  1  0
 27 42  1  1
 27 43  1  0
 27 44  1  0
M  END
