23469
     RDKit          3D

 41 43  0  0  1  0  0  0  0  0999 V2000
   43.4349   13.9762   16.5152 S   0  0  0  0  0  0  0  0  0  0  0  0
   43.2388   15.3847   15.4302 C   0  0  0  0  0  0  0  0  0  0  0  0
   42.3225   15.1290   14.5121 C   0  0  0  0  0  0  0  0  0  0  0  0
   41.7595   13.7729   14.6019 C   0  0  0  0  0  0  0  0  0  0  0  0
   42.1868   13.0208   15.6281 C   0  0  0  0  0  0  0  0  0  0  0  0
   43.9400   16.6164   15.7216 C   0  0  0  0  0  0  0  0  0  0  0  0
   44.3927   16.6325   16.8863 O   0  0  0  0  0  0  0  0  0  0  0  0
   44.0706   17.5599   14.9107 O   0  0  0  0  0  0  0  0  0  0  0  0
   41.8822   11.6386   16.0501 C   0  0  0  0  0  0  0  0  0  0  0  0
   40.5678   11.0458   15.8591 C   0  0  0  0  0  0  0  0  0  0  0  0
   40.3696    9.6768   16.2269 C   0  0  0  0  0  0  0  0  0  0  0  0
   41.4677    8.9015   16.8005 C   0  0  0  0  0  0  0  0  0  0  0  0
   42.7809    9.4864   17.0095 C   0  0  0  0  0  0  0  0  0  0  0  0
   42.9621   10.8634   16.6495 C   0  0  0  0  0  0  0  0  0  0  0  0
   40.5669   13.1524   13.2624 Br  0  0  0  0  0  0  0  0  0  0  0  0
   42.0383   16.0154   13.5689 O   0  0  0  0  0  0  0  0  0  0  0  0
   40.8225   16.7172   13.7275 C   0  0  1  0  0  0  0  0  0  0  0  0
   40.5922   17.4164   12.4629 C   0  0  0  0  0  0  0  0  0  0  0  0
   39.4465   17.8760   12.3022 O   0  0  0  0  0  0  0  0  0  0  0  0
   41.5197   17.5214   11.6281 O   0  0  0  0  0  0  0  0  0  0  0  0
   39.1083    9.2240   15.9963 N   0  0  0  0  0  0  0  0  0  0  0  0
   39.7940   11.6547   15.4443 H   0  0  0  0  0  0  0  0  0  0  0  0
   41.3330    7.8650   17.0689 H   0  0  0  0  0  0  0  0  0  0  0  0
   43.5917    8.9074   17.4269 H   0  0  0  0  0  0  0  0  0  0  0  0
   43.9419   11.2991   16.7823 H   0  0  0  0  0  0  0  0  0  0  0  0
   39.9904   16.0539   13.9762 H   0  0  0  0  0  0  0  0  0  0  0  0
   40.9172   17.4454   14.5358 H   0  0  0  0  0  0  0  0  0  0  0  0
   38.5558    9.8166   15.3890 H   0  0  0  0  0  0  0  0  0  0  0  0
   38.5861    8.0054   16.2434 C   0  0  0  0  0  0  0  0  0  0  0  0
   39.0000    7.2460   17.1256 O   0  0  0  0  0  0  0  0  0  0  0  0
   35.4500    6.6222   13.6227 C   0  0  0  0  0  0  0  0  0  0  0  0
   35.6869    5.9723   14.8299 C   0  0  0  0  0  0  0  0  0  0  0  0
   36.6784    6.4451   15.6852 C   0  0  0  0  0  0  0  0  0  0  0  0
   37.4493    7.5671   15.3388 C   0  0  0  0  0  0  0  0  0  0  0  0
   37.1825    8.2180   14.1195 C   0  0  0  0  0  0  0  0  0  0  0  0
   36.1830    7.7510   13.2716 C   0  0  0  0  0  0  0  0  0  0  0  0
   34.6814    6.2535   12.9591 H   0  0  0  0  0  0  0  0  0  0  0  0
   35.1068    5.1012   15.1009 H   0  0  0  0  0  0  0  0  0  0  0  0
   36.8568    5.9167   16.6129 H   0  0  0  0  0  0  0  0  0  0  0  0
   37.7487    9.0819   13.7971 H   0  0  0  0  0  0  0  0  0  0  0  0
   35.9835    8.2667   12.3434 H   0  0  0  0  0  0  0  0  0  0  0  0
  1  2  1  0
  1  5  1  0
  2  3  2  0
  2  6  1  0
  3  4  1  0
  3 16  1  0
  4  5  2  0
  4 15  1  0
  5  9  1  0
  6  7  2  0
  6  8  1  0
  9 10  1  0
  9 14  2  0
 10 11  2  0
 10 22  1  0
 11 12  1  0
 11 21  1  0
 12 13  2  0
 12 23  1  0
 13 14  1  0
 13 24  1  0
 14 25  1  0
 16 17  1  0
 17 18  1  0
 17 26  1  1
 17 27  1  0
 18 19  1  0
 18 20  2  0
 21 28  1  0
 21 29  1  0
 29 30  2  0
 29 34  1  0
 31 32  2  0
 31 36  1  0
 31 37  1  0
 32 33  1  0
 32 38  1  0
 33 34  2  0
 33 39  1  0
 34 35  1  0
 35 36  2  0
 35 40  1  0
 36 41  1  0
M  CHG  2   8  -1  19  -1
M  END
