23472
     RDKit          3D

 42 44  0  0  1  0  0  0  0  0999 V2000
   43.4349   13.9762   16.5152 S   0  0  0  0  0  0  0  0  0  0  0  0
   43.2388   15.3847   15.4302 C   0  0  0  0  0  0  0  0  0  0  0  0
   42.3225   15.1290   14.5121 C   0  0  0  0  0  0  0  0  0  0  0  0
   41.7595   13.7729   14.6019 C   0  0  0  0  0  0  0  0  0  0  0  0
   42.1868   13.0208   15.6281 C   0  0  0  0  0  0  0  0  0  0  0  0
   43.9400   16.6164   15.7216 C   0  0  0  0  0  0  0  0  0  0  0  0
   44.3927   16.6325   16.8863 O   0  0  0  0  0  0  0  0  0  0  0  0
   44.0706   17.5599   14.9107 O   0  0  0  0  0  0  0  0  0  0  0  0
   41.8822   11.6386   16.0501 C   0  0  0  0  0  0  0  0  0  0  0  0
   40.5678   11.0458   15.8591 C   0  0  0  0  0  0  0  0  0  0  0  0
   40.3696    9.6768   16.2269 C   0  0  0  0  0  0  0  0  0  0  0  0
   41.4677    8.9015   16.8005 C   0  0  0  0  0  0  0  0  0  0  0  0
   42.7809    9.4864   17.0095 C   0  0  0  0  0  0  0  0  0  0  0  0
   42.9621   10.8634   16.6495 C   0  0  0  0  0  0  0  0  0  0  0  0
   40.5677   13.1526   13.2617 Br  0  0  0  0  0  0  0  0  0  0  0  0
   42.0383   16.0154   13.5689 O   0  0  0  0  0  0  0  0  0  0  0  0
   40.8225   16.7172   13.7275 C   0  0  2  0  0  0  0  0  0  0  0  0
   40.5922   17.4164   12.4629 C   0  0  0  0  0  0  0  0  0  0  0  0
   39.4465   17.8760   12.3022 O   0  0  0  0  0  0  0  0  0  0  0  0
   41.5197   17.5214   11.6281 O   0  0  0  0  0  0  0  0  0  0  0  0
   39.1083    9.2240   15.9963 N   0  0  0  0  0  0  0  0  0  0  0  0
   38.8080    7.7788   15.0595 S   0  0  2  0  0  0  0  0  0  0  0  0
   39.7936   11.6508   15.4419 H   0  0  0  0  0  0  0  0  0  0  0  0
   41.3003    7.8687   17.0688 H   0  0  0  0  0  0  0  0  0  0  0  0
   43.5909    8.9080   17.4292 H   0  0  0  0  0  0  0  0  0  0  0  0
   43.9416   11.2996   16.7829 H   0  0  0  0  0  0  0  0  0  0  0  0
   40.9170   17.4458   14.5354 H   0  0  0  0  0  0  0  0  0  0  0  0
   39.9902   16.0542   13.9760 H   0  0  0  0  0  0  0  0  0  0  0  0
   38.4461    9.9275   15.6967 H   0  0  0  0  0  0  0  0  0  0  0  0
   38.5150    4.3001   18.0191 C   0  0  0  0  0  0  0  0  0  0  0  0
   37.7896    5.4665   18.2443 C   0  0  0  0  0  0  0  0  0  0  0  0
   37.8900    6.5288   17.3484 C   0  0  0  0  0  0  0  0  0  0  0  0
   38.7239    6.4196   16.2309 C   0  0  0  0  0  0  0  0  0  0  0  0
   39.4539    5.2476   16.0100 C   0  0  0  0  0  0  0  0  0  0  0  0
   39.3438    4.1860   16.9068 C   0  0  0  0  0  0  0  0  0  0  0  0
   38.4062    3.2670   18.8834 F   0  0  0  0  0  0  0  0  0  0  0  0
   37.1483    5.5396   19.1101 H   0  0  0  0  0  0  0  0  0  0  0  0
   37.3202    7.4324   17.5167 H   0  0  0  0  0  0  0  0  0  0  0  0
   40.0997    5.1587   15.1460 H   0  0  0  0  0  0  0  0  0  0  0  0
   39.9008    3.2750   16.7453 H   0  0  0  0  0  0  0  0  0  0  0  0
   39.9523    7.5749   14.1668 O   0  0  0  0  0  0  0  0  0  0  0  0
   37.4600    7.9497   14.5103 O   0  0  0  0  0  0  0  0  0  0  0  0
  1  2  1  0
  1  5  1  0
  2  3  2  0
  2  6  1  0
  3  4  1  0
  3 16  1  0
  4  5  2  0
  4 15  1  0
  5  9  1  0
  6  7  2  0
  6  8  1  0
  9 10  1  0
  9 14  2  0
 10 11  2  0
 10 23  1  0
 11 12  1  0
 11 21  1  0
 12 13  2  0
 12 24  1  0
 13 14  1  0
 13 25  1  0
 14 26  1  0
 16 17  1  0
 17 18  1  0
 17 27  1  1
 17 28  1  0
 18 19  1  0
 18 20  2  0
 22 21  1  1
 21 29  1  0
 22 33  1  0
 22 41  2  0
 22 42  2  0
 30 31  2  0
 30 35  1  0
 30 36  1  0
 31 32  1  0
 31 37  1  0
 32 33  2  0
 32 38  1  0
 33 34  1  0
 34 35  2  0
 34 39  1  0
 35 40  1  0
M  CHG  2   8  -1  19  -1
M  END
