20670
     RDKit          3D

 45 47  0  0  1  0  0  0  0  0999 V2000
   43.4349   13.9762   16.5152 S   0  0  0  0  0  0  0  0  0  0  0  0
   43.2388   15.3847   15.4302 C   0  0  0  0  0  0  0  0  0  0  0  0
   42.3225   15.1290   14.5121 C   0  0  0  0  0  0  0  0  0  0  0  0
   41.7595   13.7729   14.6019 C   0  0  0  0  0  0  0  0  0  0  0  0
   42.1868   13.0208   15.6281 C   0  0  0  0  0  0  0  0  0  0  0  0
   43.9400   16.6164   15.7216 C   0  0  0  0  0  0  0  0  0  0  0  0
   44.3927   16.6325   16.8863 O   0  0  0  0  0  0  0  0  0  0  0  0
   44.0706   17.5599   14.9107 O   0  0  0  0  0  0  0  0  0  0  0  0
   41.8822   11.6386   16.0501 C   0  0  0  0  0  0  0  0  0  0  0  0
   40.5678   11.0458   15.8591 C   0  0  0  0  0  0  0  0  0  0  0  0
   40.3696    9.6768   16.2269 C   0  0  0  0  0  0  0  0  0  0  0  0
   41.4677    8.9015   16.8005 C   0  0  0  0  0  0  0  0  0  0  0  0
   42.7809    9.4864   17.0095 C   0  0  0  0  0  0  0  0  0  0  0  0
   42.9621   10.8634   16.6495 C   0  0  0  0  0  0  0  0  0  0  0  0
   40.5691   13.1539   13.2598 Br  0  0  0  0  0  0  0  0  0  0  0  0
   42.0383   16.0154   13.5689 O   0  0  0  0  0  0  0  0  0  0  0  0
   40.8225   16.7172   13.7275 C   0  0  2  0  0  0  0  0  0  0  0  0
   40.5922   17.4164   12.4629 C   0  0  0  0  0  0  0  0  0  0  0  0
   39.4465   17.8760   12.3022 O   0  0  0  0  0  0  0  0  0  0  0  0
   41.5197   17.5214   11.6281 O   0  0  0  0  0  0  0  0  0  0  0  0
   39.1083    9.2240   15.9963 N   0  0  0  0  0  0  0  0  0  0  0  0
   38.8921    7.8561   15.5364 C   0  0  1  0  0  0  0  0  0  0  0  0
   37.3851    7.5484   15.6650 C   0  0  2  0  0  0  0  0  0  0  0  0
   37.0292    6.1684   15.0716 C   0  0  2  0  0  0  0  0  0  0  0  0
   37.5078    6.0346   13.6113 C   0  0  1  0  0  0  0  0  0  0  0  0
   39.0100    6.3507   13.4698 C   0  0  2  0  0  0  0  0  0  0  0  0
   39.3580    7.7293   14.0679 C   0  0  2  0  0  0  0  0  0  0  0  0
   39.7921   11.6495   15.4438 H   0  0  0  0  0  0  0  0  0  0  0  0
   41.3072    7.8708   17.0764 H   0  0  0  0  0  0  0  0  0  0  0  0
   43.5905    8.9079   17.4297 H   0  0  0  0  0  0  0  0  0  0  0  0
   43.9417   11.2996   16.7828 H   0  0  0  0  0  0  0  0  0  0  0  0
   40.9172   17.4455   14.5357 H   0  0  0  0  0  0  0  0  0  0  0  0
   39.9903   16.0540   13.9762 H   0  0  0  0  0  0  0  0  0  0  0  0
   38.5590    9.9032   15.4691 H   0  0  0  0  0  0  0  0  0  0  0  0
   39.4525    7.1545   16.1579 H   0  0  0  0  0  0  0  0  0  0  0  0
   36.7996    8.3121   15.1479 H   0  0  0  0  0  0  0  0  0  0  0  0
   37.0811    7.5843   16.7122 H   0  0  0  0  0  0  0  0  0  0  0  0
   35.9516    6.0065   15.1278 H   0  0  0  0  0  0  0  0  0  0  0  0
   37.4871    5.3844   15.6773 H   0  0  0  0  0  0  0  0  0  0  0  0
   39.3068    6.3139   12.4204 H   0  0  0  0  0  0  0  0  0  0  0  0
   39.5961    5.5810   13.9752 H   0  0  0  0  0  0  0  0  0  0  0  0
   40.4344    7.8872   14.0021 H   0  0  0  0  0  0  0  0  0  0  0  0
   38.8940    8.5078   13.4588 H   0  0  0  0  0  0  0  0  0  0  0  0
   37.3013    5.0299   13.2398 H   0  0  0  0  0  0  0  0  0  0  0  0
   36.9349    6.7157   12.9793 H   0  0  0  0  0  0  0  0  0  0  0  0
  1  2  1  0
  1  5  1  0
  2  3  2  0
  2  6  1  0
  3  4  1  0
  3 16  1  0
  4  5  2  0
  4 15  1  0
  5  9  1  0
  6  7  2  0
  6  8  1  0
  9 10  1  0
  9 14  2  0
 10 11  2  0
 10 28  1  0
 11 12  1  0
 11 21  1  0
 12 13  2  0
 12 29  1  0
 13 14  1  0
 13 30  1  0
 14 31  1  0
 16 17  1  0
 17 18  1  0
 17 32  1  1
 17 33  1  0
 18 19  1  0
 18 20  2  0
 21 22  1  0
 21 34  1  0
 22 23  1  0
 22 27  1  0
 22 35  1  1
 23 24  1  0
 23 36  1  6
 23 37  1  0
 24 25  1  0
 24 38  1  6
 24 39  1  0
 25 26  1  0
 25 44  1  6
 25 45  1  0
 26 27  1  0
 26 40  1  6
 26 41  1  0
 27 42  1  1
 27 43  1  0
M  CHG  2   8  -1  19  -1
M  END
