23467
     RDKit          3D

 31 32  0  0  1  0  0  0  0  0999 V2000
   43.4349   13.9762   16.5152 S   0  0  0  0  0  0  0  0  0  0  0  0
   43.2388   15.3847   15.4302 C   0  0  0  0  0  0  0  0  0  0  0  0
   42.3225   15.1290   14.5121 C   0  0  0  0  0  0  0  0  0  0  0  0
   41.7595   13.7729   14.6019 C   0  0  0  0  0  0  0  0  0  0  0  0
   42.1868   13.0208   15.6281 C   0  0  0  0  0  0  0  0  0  0  0  0
   43.9400   16.6164   15.7216 C   0  0  0  0  0  0  0  0  0  0  0  0
   44.3927   16.6325   16.8863 O   0  0  0  0  0  0  0  0  0  0  0  0
   44.0706   17.5599   14.9107 O   0  0  0  0  0  0  0  0  0  0  0  0
   41.8822   11.6386   16.0501 C   0  0  0  0  0  0  0  0  0  0  0  0
   40.5678   11.0458   15.8591 C   0  0  0  0  0  0  0  0  0  0  0  0
   40.3696    9.6768   16.2269 C   0  0  0  0  0  0  0  0  0  0  0  0
   41.4677    8.9015   16.8005 C   0  0  0  0  0  0  0  0  0  0  0  0
   42.7809    9.4864   17.0095 C   0  0  0  0  0  0  0  0  0  0  0  0
   42.9621   10.8634   16.6495 C   0  0  0  0  0  0  0  0  0  0  0  0
   40.5688   13.1537   13.2606 Br  0  0  0  0  0  0  0  0  0  0  0  0
   42.0383   16.0154   13.5689 O   0  0  0  0  0  0  0  0  0  0  0  0
   40.8225   16.7172   13.7275 C   0  0  2  0  0  0  0  0  0  0  0  0
   40.5922   17.4164   12.4629 C   0  0  0  0  0  0  0  0  0  0  0  0
   39.4465   17.8760   12.3022 O   0  0  0  0  0  0  0  0  0  0  0  0
   41.5197   17.5214   11.6281 O   0  0  0  0  0  0  0  0  0  0  0  0
   39.1072    9.1627   16.0191 O   0  0  0  0  0  0  0  0  0  0  0  0
   38.8832    7.7741   16.2431 C   0  0  1  0  0  0  0  0  0  0  0  0
   39.7826   11.6351   15.4431 H   0  0  0  0  0  0  0  0  0  0  0  0
   41.3256    7.8684   17.0784 H   0  0  0  0  0  0  0  0  0  0  0  0
   43.5916    8.9086   17.4293 H   0  0  0  0  0  0  0  0  0  0  0  0
   43.9418   11.2995   16.7830 H   0  0  0  0  0  0  0  0  0  0  0  0
   40.9171   17.4457   14.5355 H   0  0  0  0  0  0  0  0  0  0  0  0
   39.9902   16.0542   13.9761 H   0  0  0  0  0  0  0  0  0  0  0  0
   39.5355    7.1557   15.6240 H   0  0  0  0  0  0  0  0  0  0  0  0
   39.0262    7.5083   17.2916 H   0  0  0  0  0  0  0  0  0  0  0  0
   37.8538    7.5289   15.9816 H   0  0  0  0  0  0  0  0  0  0  0  0
  1  2  1  0
  1  5  1  0
  2  3  2  0
  2  6  1  0
  3  4  1  0
  3 16  1  0
  4  5  2  0
  4 15  1  0
  5  9  1  0
  6  7  2  0
  6  8  1  0
  9 10  1  0
  9 14  2  0
 10 11  2  0
 10 23  1  0
 11 12  1  0
 11 21  1  0
 12 13  2  0
 12 24  1  0
 13 14  1  0
 13 25  1  0
 14 26  1  0
 16 17  1  0
 17 18  1  0
 17 27  1  1
 17 28  1  0
 18 19  1  0
 18 20  2  0
 21 22  1  0
 22 29  1  6
 22 30  1  0
 22 31  1  0
M  CHG  2   8  -1  19  -1
M  END
