23474
     RDKit          3D

 48 50  0  0  1  0  0  0  0  0999 V2000
   43.4349   13.9762   16.5152 S   0  0  0  0  0  0  0  0  0  0  0  0
   43.2388   15.3847   15.4302 C   0  0  0  0  0  0  0  0  0  0  0  0
   42.3225   15.1290   14.5121 C   0  0  0  0  0  0  0  0  0  0  0  0
   41.7595   13.7729   14.6019 C   0  0  0  0  0  0  0  0  0  0  0  0
   42.1868   13.0208   15.6281 C   0  0  0  0  0  0  0  0  0  0  0  0
   43.9400   16.6164   15.7216 C   0  0  0  0  0  0  0  0  0  0  0  0
   44.3927   16.6325   16.8863 O   0  0  0  0  0  0  0  0  0  0  0  0
   44.0706   17.5599   14.9107 O   0  0  0  0  0  0  0  0  0  0  0  0
   41.8822   11.6386   16.0501 C   0  0  0  0  0  0  0  0  0  0  0  0
   40.5678   11.0458   15.8591 C   0  0  0  0  0  0  0  0  0  0  0  0
   40.3696    9.6768   16.2269 C   0  0  0  0  0  0  0  0  0  0  0  0
   41.4677    8.9015   16.8005 C   0  0  0  0  0  0  0  0  0  0  0  0
   42.7809    9.4864   17.0095 C   0  0  0  0  0  0  0  0  0  0  0  0
   42.9621   10.8634   16.6495 C   0  0  0  0  0  0  0  0  0  0  0  0
   40.5694   13.1541   13.2596 Br  0  0  0  0  0  0  0  0  0  0  0  0
   42.0383   16.0154   13.5689 O   0  0  0  0  0  0  0  0  0  0  0  0
   40.8225   16.7172   13.7275 C   0  0  1  0  0  0  0  0  0  0  0  0
   40.5922   17.4164   12.4629 C   0  0  0  0  0  0  0  0  0  0  0  0
   39.4465   17.8760   12.3022 O   0  0  0  0  0  0  0  0  0  0  0  0
   41.5197   17.5214   11.6281 O   0  0  0  0  0  0  0  0  0  0  0  0
   39.1083    9.2240   15.9963 N   0  0  0  0  0  0  0  0  0  0  0  0
   38.9402    7.7788   15.8475 C   0  0  1  0  0  0  0  0  0  0  0  0
   39.7907   11.6494   15.4459 H   0  0  0  0  0  0  0  0  0  0  0  0
   41.3141    7.8698   17.0771 H   0  0  0  0  0  0  0  0  0  0  0  0
   43.5906    8.9080   17.4296 H   0  0  0  0  0  0  0  0  0  0  0  0
   43.9418   11.2995   16.7829 H   0  0  0  0  0  0  0  0  0  0  0  0
   39.9904   16.0540   13.9763 H   0  0  0  0  0  0  0  0  0  0  0  0
   40.9173   17.4454   14.5358 H   0  0  0  0  0  0  0  0  0  0  0  0
   38.5997    9.8041   15.3265 H   0  0  0  0  0  0  0  0  0  0  0  0
   39.7003    7.3921   15.1636 H   0  0  0  0  0  0  0  0  0  0  0  0
   39.1515    7.2988   16.8053 H   0  0  0  0  0  0  0  0  0  0  0  0
   36.7953    7.8551   15.9430 H   0  0  0  0  0  0  0  0  0  0  0  0
   35.9870    5.3571   14.9258 C   0  0  2  0  0  0  0  0  0  0  0  0
   37.3442    5.8308   15.4847 C   0  0  2  0  0  0  0  0  0  0  0  0
   37.5512    7.3591   15.3303 C   0  0  2  0  0  0  0  0  0  0  0  0
   37.3376    7.7864   13.8542 C   0  0  1  0  0  0  0  0  0  0  0  0
   35.9839    7.3091   13.3034 C   0  0  1  0  0  0  0  0  0  0  0  0
   35.7926    5.7910   13.4613 C   0  0  1  0  0  0  0  0  0  0  0  0
   35.1810    5.7690   15.5357 H   0  0  0  0  0  0  0  0  0  0  0  0
   35.9060    4.2723   15.0080 H   0  0  0  0  0  0  0  0  0  0  0  0
   38.1466    5.2999   14.9686 H   0  0  0  0  0  0  0  0  0  0  0  0
   37.4224    5.5475   16.5356 H   0  0  0  0  0  0  0  0  0  0  0  0
   37.4000    8.8721   13.7623 H   0  0  0  0  0  0  0  0  0  0  0  0
   38.1407    7.3850   13.2338 H   0  0  0  0  0  0  0  0  0  0  0  0
   35.2021    7.8248   13.8511 H   0  0  0  0  0  0  0  0  0  0  0  0
   35.8690    7.6059   12.2629 H   0  0  0  0  0  0  0  0  0  0  0  0
   36.5057    5.2648   12.8244 H   0  0  0  0  0  0  0  0  0  0  0  0
   34.7997    5.5007   13.1145 H   0  0  0  0  0  0  0  0  0  0  0  0
  1  2  1  0
  1  5  1  0
  2  3  2  0
  2  6  1  0
  3  4  1  0
  3 16  1  0
  4  5  2  0
  4 15  1  0
  5  9  1  0
  6  7  2  0
  6  8  1  0
  9 10  1  0
  9 14  2  0
 10 11  2  0
 10 23  1  0
 11 12  1  0
 11 21  1  0
 12 13  2  0
 12 24  1  0
 13 14  1  0
 13 25  1  0
 14 26  1  0
 16 17  1  0
 17 18  1  0
 17 27  1  1
 17 28  1  0
 18 19  1  0
 18 20  2  0
 21 22  1  0
 21 29  1  0
 22 30  1  6
 22 31  1  0
 22 35  1  0
 35 32  1  1
 33 34  1  0
 33 38  1  0
 33 39  1  1
 33 40  1  0
 34 35  1  0
 34 41  1  6
 34 42  1  0
 35 36  1  0
 36 37  1  0
 36 43  1  1
 36 44  1  0
 37 38  1  0
 37 45  1  1
 37 46  1  0
 38 47  1  6
 38 48  1  0
M  CHG  2   8  -1  19  -1
M  END
