23470
     RDKit          3D

 42 43  0  0  1  0  0  0  0  0999 V2000
   43.4349   13.9762   16.5152 S   0  0  0  0  0  0  0  0  0  0  0  0
   43.2388   15.3847   15.4302 C   0  0  0  0  0  0  0  0  0  0  0  0
   42.3225   15.1290   14.5121 C   0  0  0  0  0  0  0  0  0  0  0  0
   41.7595   13.7729   14.6019 C   0  0  0  0  0  0  0  0  0  0  0  0
   42.1868   13.0208   15.6281 C   0  0  0  0  0  0  0  0  0  0  0  0
   43.9400   16.6164   15.7216 C   0  0  0  0  0  0  0  0  0  0  0  0
   44.3927   16.6325   16.8863 O   0  0  0  0  0  0  0  0  0  0  0  0
   44.0706   17.5599   14.9107 O   0  0  0  0  0  0  0  0  0  0  0  0
   41.8822   11.6386   16.0501 C   0  0  0  0  0  0  0  0  0  0  0  0
   40.5678   11.0458   15.8591 C   0  0  0  0  0  0  0  0  0  0  0  0
   40.3696    9.6768   16.2269 C   0  0  0  0  0  0  0  0  0  0  0  0
   41.4677    8.9015   16.8005 C   0  0  0  0  0  0  0  0  0  0  0  0
   42.7809    9.4864   17.0095 C   0  0  0  0  0  0  0  0  0  0  0  0
   42.9621   10.8634   16.6495 C   0  0  0  0  0  0  0  0  0  0  0  0
   40.5668   13.1521   13.2625 Br  0  0  0  0  0  0  0  0  0  0  0  0
   42.0383   16.0154   13.5689 O   0  0  0  0  0  0  0  0  0  0  0  0
   40.8225   16.7172   13.7275 C   0  0  2  0  0  0  0  0  0  0  0  0
   40.5922   17.4164   12.4629 C   0  0  0  0  0  0  0  0  0  0  0  0
   39.4465   17.8760   12.3022 O   0  0  0  0  0  0  0  0  0  0  0  0
   41.5197   17.5214   11.6281 O   0  0  0  0  0  0  0  0  0  0  0  0
   39.1083    9.2240   15.9963 N   0  0  0  0  0  0  0  0  0  0  0  0
   39.7938   11.6531   15.4426 H   0  0  0  0  0  0  0  0  0  0  0  0
   41.3244    7.8680   17.0768 H   0  0  0  0  0  0  0  0  0  0  0  0
   43.5910    8.9079   17.4291 H   0  0  0  0  0  0  0  0  0  0  0  0
   43.9419   11.2992   16.7830 H   0  0  0  0  0  0  0  0  0  0  0  0
   40.9171   17.4455   14.5356 H   0  0  0  0  0  0  0  0  0  0  0  0
   39.9903   16.0540   13.9761 H   0  0  0  0  0  0  0  0  0  0  0  0
   38.5333    9.8951   15.5042 H   0  0  0  0  0  0  0  0  0  0  0  0
   38.6697    7.9571   15.9554 C   0  0  0  0  0  0  0  0  0  0  0  0
   39.0816    7.0285   16.6520 O   0  0  0  0  0  0  0  0  0  0  0  0
   37.7605    7.8086   14.9838 N   0  0  0  0  0  0  0  0  0  0  0  0
   37.4572    8.6387   14.4970 H   0  0  0  0  0  0  0  0  0  0  0  0
   37.2585    6.5395   14.4572 C   0  0  1  0  0  0  0  0  0  0  0  0
   37.0817    5.8562   15.2942 H   0  0  0  0  0  0  0  0  0  0  0  0
   35.9139    6.7642   13.7544 C   0  0  1  0  0  0  0  0  0  0  0  0
   35.5032    5.8293   13.3718 H   0  0  0  0  0  0  0  0  0  0  0  0
   35.1816    7.1792   14.4451 H   0  0  0  0  0  0  0  0  0  0  0  0
   36.0052    7.4547   12.9147 H   0  0  0  0  0  0  0  0  0  0  0  0
   38.2740    5.8840   13.5040 C   0  0  1  0  0  0  0  0  0  0  0  0
   38.5003    6.5268   12.6530 H   0  0  0  0  0  0  0  0  0  0  0  0
   39.2164    5.6716   14.0114 H   0  0  0  0  0  0  0  0  0  0  0  0
   37.8985    4.9379   13.1129 H   0  0  0  0  0  0  0  0  0  0  0  0
  1  2  1  0
  1  5  1  0
  2  3  2  0
  2  6  1  0
  3  4  1  0
  3 16  1  0
  4  5  2  0
  4 15  1  0
  5  9  1  0
  6  7  2  0
  6  8  1  0
  9 10  1  0
  9 14  2  0
 10 11  2  0
 10 22  1  0
 11 12  1  0
 11 21  1  0
 12 13  2  0
 12 23  1  0
 13 14  1  0
 13 24  1  0
 14 25  1  0
 16 17  1  0
 17 18  1  0
 17 26  1  1
 17 27  1  0
 18 19  1  0
 18 20  2  0
 21 28  1  0
 21 29  1  0
 29 30  2  0
 29 31  1  0
 31 32  1  0
 31 33  1  0
 33 34  1  1
 33 35  1  0
 33 39  1  0
 35 36  1  6
 35 37  1  0
 35 38  1  0
 39 40  1  6
 39 41  1  0
 39 42  1  0
M  CHG  2   8  -1  19  -1
M  END
