23482
     RDKit          3D

 50 52  0  0  1  0  0  0  0  0999 V2000
   43.4349   13.9762   16.5152 S   0  0  0  0  0  0  0  0  0  0  0  0
   43.2388   15.3847   15.4302 C   0  0  0  0  0  0  0  0  0  0  0  0
   42.3225   15.1290   14.5121 C   0  0  0  0  0  0  0  0  0  0  0  0
   41.7595   13.7729   14.6019 C   0  0  0  0  0  0  0  0  0  0  0  0
   42.1868   13.0208   15.6281 C   0  0  0  0  0  0  0  0  0  0  0  0
   43.9400   16.6164   15.7216 C   0  0  0  0  0  0  0  0  0  0  0  0
   44.3927   16.6325   16.8863 O   0  0  0  0  0  0  0  0  0  0  0  0
   44.0706   17.5599   14.9107 O   0  0  0  0  0  0  0  0  0  0  0  0
   41.8822   11.6386   16.0501 C   0  0  0  0  0  0  0  0  0  0  0  0
   40.5678   11.0458   15.8591 C   0  0  0  0  0  0  0  0  0  0  0  0
   40.3696    9.6768   16.2269 C   0  0  0  0  0  0  0  0  0  0  0  0
   41.4677    8.9015   16.8005 C   0  0  0  0  0  0  0  0  0  0  0  0
   42.7809    9.4864   17.0095 C   0  0  0  0  0  0  0  0  0  0  0  0
   42.9621   10.8634   16.6495 C   0  0  0  0  0  0  0  0  0  0  0  0
   40.5688   13.1529   13.2604 Br  0  0  0  0  0  0  0  0  0  0  0  0
   42.0383   16.0154   13.5689 O   0  0  0  0  0  0  0  0  0  0  0  0
   40.8225   16.7172   13.7275 C   0  0  2  0  0  0  0  0  0  0  0  0
   40.5922   17.4164   12.4629 C   0  0  0  0  0  0  0  0  0  0  0  0
   39.4465   17.8760   12.3022 O   0  0  0  0  0  0  0  0  0  0  0  0
   41.5197   17.5214   11.6281 O   0  0  0  0  0  0  0  0  0  0  0  0
   39.1083    9.2240   15.9963 N   0  0  0  0  0  0  0  0  0  0  0  0
   38.8278    7.8651   15.6453 C   0  0  1  0  0  0  0  0  0  0  0  0
   37.3098    7.7080   15.5483 C   0  0  2  0  0  0  0  0  0  0  0  0
   36.8797    6.3606   15.0162 C   0  0  2  0  0  0  0  0  0  0  0  0
   37.6451    6.1119   13.7935 N   0  0  0  0  0  0  0  0  0  0  0  0
   39.1091    6.1658   13.7891 C   0  0  2  0  0  0  0  0  0  0  0  0
   39.5301    7.5042   14.3382 C   0  0  2  0  0  0  0  0  0  0  0  0
   36.8923    4.9380   12.6856 S   0  0  2  0  0  0  0  0  0  0  0  0
   37.6043    4.9657   11.4074 O   0  0  0  0  0  0  0  0  0  0  0  0
   35.4378    5.1317   12.7005 O   0  0  0  0  0  0  0  0  0  0  0  0
   37.2474    3.2950   13.4809 C   0  0  2  0  0  0  0  0  0  0  0  0
   39.7923   11.6505   15.4451 H   0  0  0  0  0  0  0  0  0  0  0  0
   41.3040    7.8696   17.0716 H   0  0  0  0  0  0  0  0  0  0  0  0
   43.5907    8.9077   17.4289 H   0  0  0  0  0  0  0  0  0  0  0  0
   43.9418   11.2995   16.7826 H   0  0  0  0  0  0  0  0  0  0  0  0
   40.9171   17.4454   14.5357 H   0  0  0  0  0  0  0  0  0  0  0  0
   39.9903   16.0540   13.9761 H   0  0  0  0  0  0  0  0  0  0  0  0
   38.5791    9.8944   15.4383 H   0  0  0  0  0  0  0  0  0  0  0  0
   39.2004    7.2102   16.4370 H   0  0  0  0  0  0  0  0  0  0  0  0
   36.9011    8.4796   14.8907 H   0  0  0  0  0  0  0  0  0  0  0  0
   36.8512    7.8745   16.5241 H   0  0  0  0  0  0  0  0  0  0  0  0
   35.8102    6.3527   14.8007 H   0  0  0  0  0  0  0  0  0  0  0  0
   37.0820    5.5517   15.7202 H   0  0  0  0  0  0  0  0  0  0  0  0
   39.4799    6.0230   12.7724 H   0  0  0  0  0  0  0  0  0  0  0  0
   39.4869    5.3383   14.3921 H   0  0  0  0  0  0  0  0  0  0  0  0
   40.6128    7.5066   14.4697 H   0  0  0  0  0  0  0  0  0  0  0  0
   39.3165    8.2677   13.5871 H   0  0  0  0  0  0  0  0  0  0  0  0
   36.7970    3.2893   14.4694 H   0  0  0  0  0  0  0  0  0  0  0  0
   38.3255    3.1744   13.5433 H   0  0  0  0  0  0  0  0  0  0  0  0
   36.8115    2.5212   12.8554 H   0  0  0  0  0  0  0  0  0  0  0  0
  1  2  1  0
  1  5  1  0
  2  3  2  0
  2  6  1  0
  3  4  1  0
  3 16  1  0
  4  5  2  0
  4 15  1  0
  5  9  1  0
  6  7  2  0
  6  8  1  0
  9 10  1  0
  9 14  2  0
 10 11  2  0
 10 32  1  0
 11 12  1  0
 11 21  1  0
 12 13  2  0
 12 33  1  0
 13 14  1  0
 13 34  1  0
 14 35  1  0
 16 17  1  0
 17 18  1  0
 17 36  1  1
 17 37  1  0
 18 19  1  0
 18 20  2  0
 21 22  1  0
 21 38  1  0
 22 23  1  0
 22 27  1  0
 22 39  1  1
 23 24  1  0
 23 40  1  6
 23 41  1  0
 24 25  1  0
 24 42  1  6
 24 43  1  0
 25 26  1  0
 28 25  1  1
 26 27  1  0
 26 44  1  6
 26 45  1  0
 27 46  1  1
 27 47  1  0
 28 29  2  0
 28 30  2  0
 28 31  1  0
 31 48  1  1
 31 49  1  0
 31 50  1  0
M  CHG  2   8  -1  19  -1
M  END
