23473
     RDKit          3D

 41 43  0  0  1  0  0  0  0  0999 V2000
   43.4349   13.9762   16.5152 S   0  0  0  0  0  0  0  0  0  0  0  0
   43.2388   15.3847   15.4302 C   0  0  0  0  0  0  0  0  0  0  0  0
   42.3225   15.1290   14.5121 C   0  0  0  0  0  0  0  0  0  0  0  0
   41.7595   13.7729   14.6019 C   0  0  0  0  0  0  0  0  0  0  0  0
   42.1868   13.0208   15.6281 C   0  0  0  0  0  0  0  0  0  0  0  0
   43.9400   16.6164   15.7216 C   0  0  0  0  0  0  0  0  0  0  0  0
   44.3927   16.6325   16.8863 O   0  0  0  0  0  0  0  0  0  0  0  0
   44.0706   17.5599   14.9107 O   0  0  0  0  0  0  0  0  0  0  0  0
   41.8822   11.6386   16.0501 C   0  0  0  0  0  0  0  0  0  0  0  0
   40.5678   11.0458   15.8591 C   0  0  0  0  0  0  0  0  0  0  0  0
   40.3696    9.6768   16.2269 C   0  0  0  0  0  0  0  0  0  0  0  0
   41.4677    8.9015   16.8005 C   0  0  0  0  0  0  0  0  0  0  0  0
   42.7809    9.4864   17.0095 C   0  0  0  0  0  0  0  0  0  0  0  0
   42.9621   10.8634   16.6495 C   0  0  0  0  0  0  0  0  0  0  0  0
   40.5696   13.1540   13.2599 Br  0  0  0  0  0  0  0  0  0  0  0  0
   42.0383   16.0154   13.5689 O   0  0  0  0  0  0  0  0  0  0  0  0
   40.8225   16.7172   13.7275 C   0  0  2  0  0  0  0  0  0  0  0  0
   40.5922   17.4164   12.4629 C   0  0  0  0  0  0  0  0  0  0  0  0
   39.4465   17.8760   12.3022 O   0  0  0  0  0  0  0  0  0  0  0  0
   41.5197   17.5214   11.6281 O   0  0  0  0  0  0  0  0  0  0  0  0
   39.1299    9.1279   15.9797 O   0  0  0  0  0  0  0  0  0  0  0  0
   39.0662    7.7180   15.7409 C   0  0  1  0  0  0  0  0  0  0  0  0
   39.7847   11.6306   15.4332 H   0  0  0  0  0  0  0  0  0  0  0  0
   41.3197    7.8685   17.0770 H   0  0  0  0  0  0  0  0  0  0  0  0
   43.5916    8.9086   17.4294 H   0  0  0  0  0  0  0  0  0  0  0  0
   43.9418   11.2995   16.7829 H   0  0  0  0  0  0  0  0  0  0  0  0
   40.9173   17.4454   14.5357 H   0  0  0  0  0  0  0  0  0  0  0  0
   39.9904   16.0540   13.9763 H   0  0  0  0  0  0  0  0  0  0  0  0
   39.9188    7.3712   15.1521 H   0  0  0  0  0  0  0  0  0  0  0  0
   39.0851    7.1915   16.6970 H   0  0  0  0  0  0  0  0  0  0  0  0
   35.5648    6.6235   13.4827 C   0  0  0  0  0  0  0  0  0  0  0  0
   36.0188    5.7903   14.5028 C   0  0  0  0  0  0  0  0  0  0  0  0
   37.1413    6.1543   15.2429 C   0  0  0  0  0  0  0  0  0  0  0  0
   37.8078    7.3515   14.9615 C   0  0  0  0  0  0  0  0  0  0  0  0
   37.3417    8.1832   13.9379 C   0  0  0  0  0  0  0  0  0  0  0  0
   36.2168    7.8220   13.2014 C   0  0  0  0  0  0  0  0  0  0  0  0
   34.6938    6.3396   12.9104 H   0  0  0  0  0  0  0  0  0  0  0  0
   35.5042    4.8639   14.7172 H   0  0  0  0  0  0  0  0  0  0  0  0
   37.4956    5.4991   16.0270 H   0  0  0  0  0  0  0  0  0  0  0  0
   37.8509    9.1120   13.7154 H   0  0  0  0  0  0  0  0  0  0  0  0
   35.8546    8.4752   12.4202 H   0  0  0  0  0  0  0  0  0  0  0  0
  1  2  1  0
  1  5  1  0
  2  3  2  0
  2  6  1  0
  3  4  1  0
  3 16  1  0
  4  5  2  0
  4 15  1  0
  5  9  1  0
  6  7  2  0
  6  8  1  0
  9 10  1  0
  9 14  2  0
 10 11  2  0
 10 23  1  0
 11 12  1  0
 11 21  1  0
 12 13  2  0
 12 24  1  0
 13 14  1  0
 13 25  1  0
 14 26  1  0
 16 17  1  0
 17 18  1  0
 17 27  1  1
 17 28  1  0
 18 19  1  0
 18 20  2  0
 21 22  1  0
 22 29  1  6
 22 30  1  0
 22 34  1  0
 31 32  2  0
 31 36  1  0
 31 37  1  0
 32 33  1  0
 32 38  1  0
 33 34  2  0
 33 39  1  0
 34 35  1  0
 35 36  2  0
 35 40  1  0
 36 41  1  0
M  CHG  2   8  -1  19  -1
M  END
