23475
     RDKit          3D

 42 44  0  0  1  0  0  0  0  0999 V2000
   43.4349   13.9762   16.5152 S   0  0  0  0  0  0  0  0  0  0  0  0
   43.2388   15.3847   15.4302 C   0  0  0  0  0  0  0  0  0  0  0  0
   42.3225   15.1290   14.5121 C   0  0  0  0  0  0  0  0  0  0  0  0
   41.7595   13.7729   14.6019 C   0  0  0  0  0  0  0  0  0  0  0  0
   42.1868   13.0208   15.6281 C   0  0  0  0  0  0  0  0  0  0  0  0
   43.9400   16.6164   15.7216 C   0  0  0  0  0  0  0  0  0  0  0  0
   44.3927   16.6325   16.8863 O   0  0  0  0  0  0  0  0  0  0  0  0
   44.0706   17.5599   14.9107 O   0  0  0  0  0  0  0  0  0  0  0  0
   41.8822   11.6386   16.0501 C   0  0  0  0  0  0  0  0  0  0  0  0
   40.5678   11.0458   15.8591 C   0  0  0  0  0  0  0  0  0  0  0  0
   40.3696    9.6768   16.2269 C   0  0  0  0  0  0  0  0  0  0  0  0
   41.4677    8.9015   16.8005 C   0  0  0  0  0  0  0  0  0  0  0  0
   42.7809    9.4864   17.0095 C   0  0  0  0  0  0  0  0  0  0  0  0
   42.9621   10.8634   16.6495 C   0  0  0  0  0  0  0  0  0  0  0  0
   40.5688   13.1540   13.2600 Br  0  0  0  0  0  0  0  0  0  0  0  0
   42.0383   16.0154   13.5689 O   0  0  0  0  0  0  0  0  0  0  0  0
   40.8225   16.7172   13.7275 C   0  0  2  0  0  0  0  0  0  0  0  0
   40.5922   17.4164   12.4629 C   0  0  0  0  0  0  0  0  0  0  0  0
   39.4465   17.8760   12.3022 O   0  0  0  0  0  0  0  0  0  0  0  0
   41.5197   17.5214   11.6281 O   0  0  0  0  0  0  0  0  0  0  0  0
   39.1083    9.2240   15.9963 N   0  0  0  0  0  0  0  0  0  0  0  0
   39.7918   11.6497   15.4445 H   0  0  0  0  0  0  0  0  0  0  0  0
   41.3089    7.8703   17.0755 H   0  0  0  0  0  0  0  0  0  0  0  0
   43.5906    8.9079   17.4295 H   0  0  0  0  0  0  0  0  0  0  0  0
   43.9418   11.2996   16.7828 H   0  0  0  0  0  0  0  0  0  0  0  0
   40.9172   17.4455   14.5356 H   0  0  0  0  0  0  0  0  0  0  0  0
   39.9903   16.0541   13.9762 H   0  0  0  0  0  0  0  0  0  0  0  0
   38.5630    9.8809   15.4374 H   0  0  0  0  0  0  0  0  0  0  0  0
   39.3786    7.1362   16.3176 H   0  0  0  0  0  0  0  0  0  0  0  0
   38.8992    7.8318   15.6241 C   0  0  1  0  0  0  0  0  0  0  0  0
   37.4108    7.4902   15.5470 C   0  0  2  0  0  0  0  0  0  0  0  0
   37.3382    6.2371   14.6612 C   0  0  1  0  0  0  0  0  0  0  0  0
   38.6065    6.2600   13.7902 C   0  0  1  0  0  0  0  0  0  0  0  0
   39.3788    7.5209   14.2034 C   0  0  1  0  0  0  0  0  0  0  0  0
   36.8549    8.3006   15.0690 H   0  0  0  0  0  0  0  0  0  0  0  0
   36.9687    7.3305   16.5312 H   0  0  0  0  0  0  0  0  0  0  0  0
   37.3282    5.3379   15.2797 H   0  0  0  0  0  0  0  0  0  0  0  0
   36.4264    6.2256   14.0618 H   0  0  0  0  0  0  0  0  0  0  0  0
   39.2105    5.3714   13.9836 H   0  0  0  0  0  0  0  0  0  0  0  0
   38.3768    6.2657   12.7236 H   0  0  0  0  0  0  0  0  0  0  0  0
   39.1260    8.3405   13.5271 H   0  0  0  0  0  0  0  0  0  0  0  0
   40.4594    7.3795   14.1537 H   0  0  0  0  0  0  0  0  0  0  0  0
  1  2  1  0
  1  5  1  0
  2  3  2  0
  2  6  1  0
  3  4  1  0
  3 16  1  0
  4  5  2  0
  4 15  1  0
  5  9  1  0
  6  7  2  0
  6  8  1  0
  9 10  1  0
  9 14  2  0
 10 11  2  0
 10 22  1  0
 11 12  1  0
 11 21  1  0
 12 13  2  0
 12 23  1  0
 13 14  1  0
 13 24  1  0
 14 25  1  0
 16 17  1  0
 17 18  1  0
 17 26  1  1
 17 27  1  0
 18 19  1  0
 18 20  2  0
 21 28  1  0
 21 30  1  0
 30 29  1  1
 30 31  1  0
 30 34  1  0
 31 32  1  0
 31 35  1  6
 31 36  1  0
 32 33  1  0
 32 37  1  1
 32 38  1  0
 33 34  1  0
 33 39  1  6
 33 40  1  0
 34 41  1  6
 34 42  1  0
M  CHG  2   8  -1  19  -1
M  END
