ligand_62
     RDKit          3D

 57 60  0  0  1  0  0  0  0  0999 V2000
   12.0930   -1.3050   -0.9330 C   0  0  2  0  0  0  0  0  0  0  0  0
   13.5860   -1.4270   -1.0820 C   0  0  0  0  0  0  0  0  0  0  0  0
   14.2710   -2.1580   -2.0290 C   0  0  0  0  0  0  0  0  0  0  0  0
   13.7177   -3.1130   -3.0713 C   0  0  1  0  0  0  0  0  0  0  0  0
   13.6934   -2.6353   -4.5494 C   0  0  1  0  0  0  0  0  0  0  0  0
   14.6798   -3.3790   -5.3818 N   0  0  1  0  0  0  0  0  0  0  0  0
   15.2266   -2.6854   -6.5729 C   0  0  1  0  0  0  0  0  0  0  0  0
   16.6774   -3.1581   -6.8634 C   0  0  1  0  0  0  0  0  0  0  0  0
   17.7270   -2.5430   -6.0390 N   0  0  0  0  0  0  0  0  0  0  0  0
   17.7650   -2.8280   -4.6920 C   0  0  0  0  0  0  0  0  0  0  0  0
   16.7660   -2.2660   -3.8660 C   0  0  0  0  0  0  0  0  0  0  0  0
   16.7280   -2.5330   -2.5090 C   0  0  0  0  0  0  0  0  0  0  0  0
   17.7110   -3.3090   -1.9100 C   0  0  0  0  0  0  0  0  0  0  0  0
   18.7240   -3.8490   -2.7110 C   0  0  0  0  0  0  0  0  0  0  0  0
   18.7610   -3.6100   -4.0990 C   0  0  0  0  0  0  0  0  0  0  0  0
   19.8790   -4.1680   -4.9400 C   0  0  0  0  0  0  0  0  0  0  0  0
   20.5620   -5.1990   -4.4130 N   0  0  0  0  0  0  0  0  0  0  0  0
   20.2000   -3.6860   -6.0390 O   0  0  0  0  0  0  0  0  0  0  0  0
   15.6320   -1.9850   -1.7900 N   0  0  0  0  0  0  0  0  0  0  0  0
   15.7870   -1.1560   -0.6970 C   0  0  0  0  0  0  0  0  0  0  0  0
   14.5300   -0.7960   -0.2490 C   0  0  0  0  0  0  0  0  0  0  0  0
   14.3560    0.1090    0.8890 C   0  0  0  0  0  0  0  0  0  0  0  0
   13.2500    0.5680    1.1700 O   0  0  0  0  0  0  0  0  0  0  0  0
   15.6250    0.6950    1.5040 C   0  0  1  0  0  0  0  0  0  0  0  0
   16.8450    0.6940    0.5590 C   0  0  2  0  0  0  0  0  0  0  0  0
   18.0980    1.0970    1.3400 C   0  0  2  0  0  0  0  0  0  0  0  0
   16.6130    1.7530   -0.5420 C   0  0  2  0  0  0  0  0  0  0  0  0
   17.0760   -0.6870   -0.0890 C   0  0  1  0  0  0  0  0  0  0  0  0
   11.5485   -1.7597   -1.7580 H   0  0  0  0  0  0  0  0  0  0  0  0
   11.8024   -0.2545   -0.8920 H   0  0  0  0  0  0  0  0  0  0  0  0
   11.7685   -1.7772   -0.0050 H   0  0  0  0  0  0  0  0  0  0  0  0
   14.2412   -4.0660   -2.9831 H   0  0  0  0  0  0  0  0  0  0  0  0
   12.6956   -3.3667   -2.7895 H   0  0  0  0  0  0  0  0  0  0  0  0
   12.7031   -2.8008   -4.9769 H   0  0  0  0  0  0  0  0  0  0  0  0
   13.8544   -1.5563   -4.5861 H   0  0  0  0  0  0  0  0  0  0  0  0
   15.4993   -3.4926   -4.7968 H   0  0  0  0  0  0  0  0  0  0  0  0
   14.5816   -2.9072   -7.4248 H   0  0  0  0  0  0  0  0  0  0  0  0
   15.2156   -1.6002   -6.4542 H   0  0  0  0  0  0  0  0  0  0  0  0
   16.7588   -4.2458   -6.8157 H   0  0  0  0  0  0  0  0  0  0  0  0
   16.9179   -2.8974   -7.8964 H   0  0  0  0  0  0  0  0  0  0  0  0
   18.6618   -2.6577   -6.4515 H   0  0  0  0  0  0  0  0  0  0  0  0
   16.0844   -1.5311   -4.2626 H   0  0  0  0  0  0  0  0  0  0  0  0
   17.6865   -3.5019   -0.8461 H   0  0  0  0  0  0  0  0  0  0  0  0
   19.4939   -4.4281   -2.2232 H   0  0  0  0  0  0  0  0  0  0  0  0
   20.3259   -5.5854   -3.5154 H   0  0  0  0  0  0  0  0  0  0  0  0
   21.3451   -5.5558   -4.9407 H   0  0  0  0  0  0  0  0  0  0  0  0
   15.4093    1.7057    1.8510 H   0  0  0  0  0  0  0  0  0  0  0  0
   15.8459    0.1047    2.3929 H   0  0  0  0  0  0  0  0  0  0  0  0
   18.9783    1.1367    0.6969 H   0  0  0  0  0  0  0  0  0  0  0  0
   18.3130    0.3916    2.1438 H   0  0  0  0  0  0  0  0  0  0  0  0
   17.9846    2.0815    1.7967 H   0  0  0  0  0  0  0  0  0  0  0  0
   15.7422    1.5455   -1.1643 H   0  0  0  0  0  0  0  0  0  0  0  0
   17.4706    1.8204   -1.2125 H   0  0  0  0  0  0  0  0  0  0  0  0
   16.4659    2.7451   -0.1124 H   0  0  0  0  0  0  0  0  0  0  0  0
   17.4046   -1.4090    0.6599 H   0  0  0  0  0  0  0  0  0  0  0  0
   17.8664   -0.6261   -0.8384 H   0  0  0  0  0  0  0  0  0  0  0  0
   14.3381   -4.2966   -5.6276 H   0  0  0  0  0  0  0  0  0  0  0  0
  1  2  1  0
  1 29  1  6
  1 30  1  0
  1 31  1  0
  2 21  1  0
  2  3  2  0
  3 19  1  0
  3  4  1  0
  4  5  1  0
  4 32  1  6
  4 33  1  0
  5  6  1  0
  5 34  1  6
  5 35  1  0
  6  7  1  0
  6 36  1  1
  6 57  1  0
  7  8  1  0
  7 37  1  6
  7 38  1  0
  8  9  1  0
  8 39  1  6
  8 40  1  0
  9 10  1  0
  9 41  1  0
 10 15  1  0
 10 11  2  0
 11 12  1  0
 11 42  1  0
 12 13  2  0
 12 19  1  0
 13 14  1  0
 13 43  1  0
 14 15  2  0
 14 44  1  0
 15 16  1  0
 16 17  1  0
 16 18  2  0
 17 45  1  0
 17 46  1  0
 19 20  1  0
 20 28  1  0
 20 21  2  0
 21 22  1  0
 22 23  2  0
 22 24  1  0
 25 24  1  1
 24 47  1  1
 24 48  1  0
 25 26  1  0
 25 27  1  0
 25 28  1  0
 26 49  1  6
 26 50  1  0
 26 51  1  0
 27 52  1  6
 27 53  1  0
 27 54  1  0
 28 55  1  1
 28 56  1  0
M  CHG  1   6   1
M  END
