ligand_70
     RDKit          3D

 76 79  0  0  1  0  0  0  0  0999 V2000
   12.0930   -1.3050   -0.9330 C   0  0  1  0  0  0  0  0  0  0  0  0
   13.5860   -1.4270   -1.0820 C   0  0  0  0  0  0  0  0  0  0  0  0
   14.2710   -2.1580   -2.0290 C   0  0  0  0  0  0  0  0  0  0  0  0
   15.6320   -1.9850   -1.7900 N   0  0  0  0  0  0  0  0  0  0  0  0
   15.7870   -1.1560   -0.6970 C   0  0  0  0  0  0  0  0  0  0  0  0
   14.5300   -0.7960   -0.2490 C   0  0  0  0  0  0  0  0  0  0  0  0
   14.3560    0.1090    0.8890 C   0  0  0  0  0  0  0  0  0  0  0  0
   13.2500    0.5680    1.1700 O   0  0  0  0  0  0  0  0  0  0  0  0
   15.6250    0.6950    1.5040 C   0  0  2  0  0  0  0  0  0  0  0  0
   16.8450    0.6940    0.5590 C   0  0  1  0  0  0  0  0  0  0  0  0
   17.0760   -0.6870   -0.0890 C   0  0  2  0  0  0  0  0  0  0  0  0
   16.6130    1.7530   -0.5420 C   0  0  1  0  0  0  0  0  0  0  0  0
   18.0980    1.0970    1.3400 C   0  0  1  0  0  0  0  0  0  0  0  0
   16.7280   -2.5330   -2.5090 C   0  0  0  0  0  0  0  0  0  0  0  0
   17.7110   -3.3090   -1.9100 C   0  0  0  0  0  0  0  0  0  0  0  0
   18.7240   -3.8490   -2.7110 C   0  0  0  0  0  0  0  0  0  0  0  0
   18.7610   -3.6100   -4.0990 C   0  0  0  0  0  0  0  0  0  0  0  0
   17.7650   -2.8280   -4.6920 C   0  0  0  0  0  0  0  0  0  0  0  0
   16.7660   -2.2660   -3.8660 C   0  0  0  0  0  0  0  0  0  0  0  0
   17.7270   -2.5430   -6.0390 N   0  0  0  0  0  0  0  0  0  0  0  0
   16.5200   -2.1260   -6.7240 C   0  0  2  0  0  0  0  0  0  0  0  0
   15.3440   -3.1150   -6.4840 C   0  0  1  0  0  0  0  0  0  0  0  0
   13.9730   -2.4470   -6.7210 C   0  0  2  0  0  0  0  0  0  0  0  0
   13.0400   -2.7320   -5.6120 N   0  0  0  0  0  0  0  0  0  0  0  0
   13.3200   -2.0850   -4.3170 C   0  0  2  0  0  0  0  0  0  0  0  0
   13.7240   -3.0010   -3.1530 C   0  0  2  0  0  0  0  0  0  0  0  0
   11.9580   -3.5520   -5.7550 C   0  0  0  0  0  0  0  0  0  0  0  0
   11.1990   -3.7930   -4.8060 O   0  0  0  0  0  0  0  0  0  0  0  0
   11.6570   -4.2020   -7.0920 C   0  0  2  0  0  0  0  0  0  0  0  0
   10.8760   -3.2370   -7.9620 C   0  0  1  0  0  0  0  0  0  0  0  0
   10.7660   -5.3710   -6.7840 N   0  0  1  0  0  0  0  0  0  0  0  0
   15.4780   -4.4160   -7.2700 C   0  0  1  0  0  0  0  0  0  0  0  0
   16.8660   -1.8310   -8.1890 C   0  0  1  0  0  0  0  0  0  0  0  0
   19.8790   -4.1680   -4.9400 C   0  0  0  0  0  0  0  0  0  0  0  0
   20.2000   -3.6860   -6.0390 O   0  0  0  0  0  0  0  0  0  0  0  0
   20.5620   -5.1990   -4.4130 N   0  0  0  0  0  0  0  0  0  0  0  0
   11.8635   -0.6551   -0.0886 H   0  0  0  0  0  0  0  0  0  0  0  0
   11.6700   -0.8801   -1.8433 H   0  0  0  0  0  0  0  0  0  0  0  0
   11.6629   -2.2913   -0.7591 H   0  0  0  0  0  0  0  0  0  0  0  0
   15.8720    0.1471    2.4134 H   0  0  0  0  0  0  0  0  0  0  0  0
   15.4275    1.7136    1.8379 H   0  0  0  0  0  0  0  0  0  0  0  0
   17.8342   -0.6006   -0.8673 H   0  0  0  0  0  0  0  0  0  0  0  0
   17.3971   -1.3966    0.6735 H   0  0  0  0  0  0  0  0  0  0  0  0
   17.4665    1.7661   -1.2198 H   0  0  0  0  0  0  0  0  0  0  0  0
   15.7101    1.5057   -1.1003 H   0  0  0  0  0  0  0  0  0  0  0  0
   16.4985    2.7353   -0.0837 H   0  0  0  0  0  0  0  0  0  0  0  0
   18.9592    1.0960    0.6718 H   0  0  0  0  0  0  0  0  0  0  0  0
   17.9623    2.0955    1.7555 H   0  0  0  0  0  0  0  0  0  0  0  0
   18.2662    0.3869    2.1496 H   0  0  0  0  0  0  0  0  0  0  0  0
   17.6847   -3.4862   -0.8450 H   0  0  0  0  0  0  0  0  0  0  0  0
   19.4952   -4.4608   -2.2668 H   0  0  0  0  0  0  0  0  0  0  0  0
   16.0242   -1.6187   -4.3100 H   0  0  0  0  0  0  0  0  0  0  0  0
   18.5662   -2.6211   -6.5956 H   0  0  0  0  0  0  0  0  0  0  0  0
   16.2227   -1.1767   -6.2784 H   0  0  0  0  0  0  0  0  0  0  0  0
   15.3780   -3.3860   -5.4288 H   0  0  0  0  0  0  0  0  0  0  0  0
   13.5480   -2.8126   -7.6558 H   0  0  0  0  0  0  0  0  0  0  0  0
   14.1060   -1.3693   -6.8154 H   0  0  0  0  0  0  0  0  0  0  0  0
   12.4575   -1.4881   -4.0206 H   0  0  0  0  0  0  0  0  0  0  0  0
   14.0864   -1.3224   -4.4556 H   0  0  0  0  0  0  0  0  0  0  0  0
   12.8499   -3.5501   -2.8028 H   0  0  0  0  0  0  0  0  0  0  0  0
   14.4905   -3.6991   -3.4895 H   0  0  0  0  0  0  0  0  0  0  0  0
   12.5727   -4.5252   -7.5872 H   0  0  0  0  0  0  0  0  0  0  0  0
   10.6605   -3.7055   -8.9223 H   0  0  0  0  0  0  0  0  0  0  0  0
    9.9403   -2.9767   -7.4672 H   0  0  0  0  0  0  0  0  0  0  0  0
   11.4648   -2.3340   -8.1229 H   0  0  0  0  0  0  0  0  0  0  0  0
   10.5285   -5.8490   -7.6414 H   0  0  0  0  0  0  0  0  0  0  0  0
   11.2477   -6.0084   -6.1661 H   0  0  0  0  0  0  0  0  0  0  0  0
   14.6248   -5.0598   -7.0563 H   0  0  0  0  0  0  0  0  0  0  0  0
   15.5075   -4.1951   -8.3370 H   0  0  0  0  0  0  0  0  0  0  0  0
   16.3975   -4.9238   -6.9790 H   0  0  0  0  0  0  0  0  0  0  0  0
   15.9671   -1.5156   -8.7187 H   0  0  0  0  0  0  0  0  0  0  0  0
   17.6112   -1.0368   -8.2340 H   0  0  0  0  0  0  0  0  0  0  0  0
   17.2659   -2.7307   -8.6567 H   0  0  0  0  0  0  0  0  0  0  0  0
   21.3233   -5.6167   -4.9287 H   0  0  0  0  0  0  0  0  0  0  0  0
   20.3138   -5.5559   -3.5013 H   0  0  0  0  0  0  0  0  0  0  0  0
    9.9220   -5.0423   -6.3371 H   0  0  0  0  0  0  0  0  0  0  0  0
  1  2  1  0
  1 37  1  1
  1 38  1  0
  1 39  1  0
  2  3  2  0
  2  6  1  0
  3  4  1  0
  3 26  1  0
  4  5  1  0
  4 14  1  0
  5  6  2  0
  5 11  1  0
  6  7  1  0
  7  8  2  0
  7  9  1  0
 10  9  1  1
  9 40  1  1
  9 41  1  0
 10 11  1  0
 10 12  1  0
 10 13  1  0
 11 42  1  6
 11 43  1  0
 12 44  1  6
 12 45  1  0
 12 46  1  0
 13 47  1  6
 13 48  1  0
 13 49  1  0
 14 15  2  0
 14 19  1  0
 15 16  1  0
 15 50  1  0
 16 17  2  0
 16 51  1  0
 17 18  1  0
 17 34  1  0
 18 19  2  0
 18 20  1  0
 19 52  1  0
 20 21  1  0
 20 53  1  0
 21 22  1  0
 21 33  1  0
 21 54  1  1
 22 23  1  0
 22 32  1  0
 22 55  1  1
 23 24  1  0
 23 56  1  6
 23 57  1  0
 24 25  1  0
 24 27  1  0
 25 26  1  0
 25 58  1  1
 25 59  1  0
 26 60  1  1
 26 61  1  0
 27 28  2  0
 27 29  1  0
 29 30  1  0
 29 31  1  0
 29 62  1  6
 30 63  1  6
 30 64  1  0
 30 65  1  0
 31 66  1  6
 31 67  1  0
 31 76  1  0
 32 68  1  6
 32 69  1  0
 32 70  1  0
 33 71  1  6
 33 72  1  0
 33 73  1  0
 34 35  2  0
 34 36  1  0
 36 74  1  0
 36 75  1  0
M  CHG  1  31   1
M  END
