spiro15
     RDKit          3D

 41 44  0  0  1  0  0  0  0  0999 V2000
   27.0080   15.2460    9.8500 C   0  0  0  0  0  0  0  0  0  0  0  0
   27.7180   14.0220    9.7180 C   0  0  0  0  0  0  0  0  0  0  0  0
   27.0850   12.8570    9.2290 C   0  0  0  0  0  0  0  0  0  0  0  0
   25.7310   12.9360    8.8680 C   0  0  0  0  0  0  0  0  0  0  0  0
   24.9530   11.9280    8.3770 O   0  0  0  0  0  0  0  0  0  0  0  0
   23.6040   12.4180    8.2860 C   0  0  1  0  0  0  0  0  0  0  0  0
   23.6620   13.9630    8.4410 C   0  0  2  0  0  0  0  0  0  0  0  0
   22.6600   14.4940    9.3610 N   0  0  0  0  0  0  0  0  0  0  0  0
   22.1990   15.6750    8.9350 C   0  0  0  0  0  0  0  0  0  0  0  0
   21.3500   16.4250    9.6510 N   0  0  0  0  0  0  0  0  0  0  0  0
   22.7550   16.0700    7.6050 C   0  0  1  0  0  0  0  0  0  0  0  0
   23.3920   14.7500    7.1270 C   0  0  1  0  0  0  0  0  0  0  0  0
   24.5570   14.9120    6.1180 C   0  0  1  0  0  0  0  0  0  0  0  0
   25.5740   15.6220    6.6060 F   0  0  0  0  0  0  0  0  0  0  0  0
   24.9960   13.7110    5.7420 F   0  0  0  0  0  0  0  0  0  0  0  0
   24.1200   15.5380    5.0280 F   0  0  0  0  0  0  0  0  0  0  0  0
   25.0420   14.1280    8.9810 C   0  0  0  0  0  0  0  0  0  0  0  0
   25.6390   15.2870    9.5010 C   0  0  0  0  0  0  0  0  0  0  0  0
   28.7660   13.9780    9.9760 H   0  0  0  0  0  0  0  0  0  0  0  0
   27.6310   11.9300    9.1260 H   0  0  0  0  0  0  0  0  0  0  0  0
   23.1590   12.1050    7.3410 H   0  0  0  0  0  0  0  0  0  0  0  0
   23.0200   11.9620    9.0870 H   0  0  0  0  0  0  0  0  0  0  0  0
   21.0620   17.3660    9.3880 H   0  0  0  0  0  0  0  0  0  0  0  0
   21.1520   16.1560   10.6150 H   0  0  0  0  0  0  0  0  0  0  0  0
   21.9760   16.4300    6.9320 H   0  0  0  0  0  0  0  0  0  0  0  0
   23.4980   16.8550    7.7390 H   0  0  0  0  0  0  0  0  0  0  0  0
   22.6020   14.2120    6.6010 H   0  0  0  0  0  0  0  0  0  0  0  0
   25.0780   16.2080    9.5660 H   0  0  0  0  0  0  0  0  0  0  0  0
   28.9120   19.0020   10.7240 C   0  0  0  0  0  0  0  0  0  0  0  0
   29.5250   18.0620    9.8810 C   0  0  0  0  0  0  0  0  0  0  0  0
   28.9250   16.8160    9.6450 C   0  0  0  0  0  0  0  0  0  0  0  0
   27.6870   16.4920   10.2340 C   0  0  0  0  0  0  0  0  0  0  0  0
   27.0850   17.4320   11.1020 C   0  0  0  0  0  0  0  0  0  0  0  0
   27.6850   18.6880   11.3360 C   0  0  0  0  0  0  0  0  0  0  0  0
   29.3730   19.9680   10.8790 H   0  0  0  0  0  0  0  0  0  0  0  0
   29.3990   16.1270    8.9600 H   0  0  0  0  0  0  0  0  0  0  0  0
   26.1300   17.2080   11.5550 H   0  0  0  0  0  0  0  0  0  0  0  0
   30.9900   18.4480    9.0810 Cl  0  0  0  0  0  0  0  0  0  0  0  0
   27.0310   19.6780   12.1710 C   0  0  0  0  0  0  0  0  0  0  0  0
   26.5160   20.4710   12.8350 N   0  0  0  0  0  0  0  0  0  0  0  0
   22.5130   14.1150   10.3010 H   0  0  0  0  0  0  0  0  0  0  0  0
  1  2  2  0
  1 18  1  0
  1 32  1  0
  2  3  1  0
  2 19  1  0
  3  4  2  0
  3 20  1  0
  4  5  1  0
  4 17  1  0
  5  6  1  0
  6  7  1  0
  6 21  1  6
  6 22  1  0
  7  8  1  1
  7 12  1  0
  7 17  1  0
  8  9  2  0
  8 41  1  0
  9 10  1  0
  9 11  1  0
 10 23  1  0
 10 24  1  0
 11 12  1  0
 11 25  1  6
 11 26  1  0
 12 13  1  0
 12 27  1  6
 13 14  1  1
 13 15  1  0
 13 16  1  0
 17 18  2  0
 18 28  1  0
 29 30  2  0
 29 34  1  0
 29 35  1  0
 30 31  1  0
 30 38  1  0
 31 32  2  0
 31 36  1  0
 32 33  1  0
 33 34  2  0
 33 37  1  0
 34 39  1  0
 39 40  3  0
M  CHG  1   8   1
M  END
