spiro4
     RDKit          3D

 44 47  0  0  1  0  0  0  0  0999 V2000
   27.0570   15.2800    9.7880 C   0  0  0  0  0  0  0  0  0  0  0  0
   27.6900   14.0360    9.5270 C   0  0  0  0  0  0  0  0  0  0  0  0
   26.9550   12.9340    9.0350 C   0  0  0  0  0  0  0  0  0  0  0  0
   25.5810   13.1000    8.7960 C   0  0  0  0  0  0  0  0  0  0  0  0
   24.7200   12.1560    8.3150 O   0  0  0  0  0  0  0  0  0  0  0  0
   23.4030   12.7330    8.3070 C   0  0  1  0  0  0  0  0  0  0  0  0
   23.5380   14.2560    8.6060 C   0  0  2  0  0  0  0  0  0  0  0  0
   22.6060   14.7000    9.6440 N   0  0  0  0  0  0  0  0  0  0  0  0
   22.0050   15.8450    9.3020 C   0  0  0  0  0  0  0  0  0  0  0  0
   21.0570   16.4270   10.0480 N   0  0  0  0  0  0  0  0  0  0  0  0
   22.4980   16.3960    8.0090 C   0  0  1  0  0  0  0  0  0  0  0  0
   23.1800   15.1640    7.3880 C   0  0  1  0  0  0  0  0  0  0  0  0
   24.2790   15.4970    6.3490 C   0  0  1  0  0  0  0  0  0  0  0  0
   24.7880   14.3680    5.8680 F   0  0  0  0  0  0  0  0  0  0  0  0
   23.7310   16.1600    5.3350 F   0  0  0  0  0  0  0  0  0  0  0  0
   25.2600   16.2570    6.8360 F   0  0  0  0  0  0  0  0  0  0  0  0
   24.9660   14.3170    9.0300 C   0  0  0  0  0  0  0  0  0  0  0  0
   25.6680   15.4100    9.5580 C   0  0  0  0  0  0  0  0  0  0  0  0
   28.7500   13.9260    9.7000 H   0  0  0  0  0  0  0  0  0  0  0  0
   27.4390   11.9880    8.8400 H   0  0  0  0  0  0  0  0  0  0  0  0
   22.9330   12.5360    7.3430 H   0  0  0  0  0  0  0  0  0  0  0  0
   22.8000   12.2340    9.0690 H   0  0  0  0  0  0  0  0  0  0  0  0
   20.9240   16.0990   11.0130 H   0  0  0  0  0  0  0  0  0  0  0  0
   20.7240   17.3830    9.8790 H   0  0  0  0  0  0  0  0  0  0  0  0
   21.6920   16.7970    7.3950 H   0  0  0  0  0  0  0  0  0  0  0  0
   23.2170   17.1890    8.2170 H   0  0  0  0  0  0  0  0  0  0  0  0
   22.3950   14.6490    6.8350 H   0  0  0  0  0  0  0  0  0  0  0  0
   25.1630   16.3510    9.7220 H   0  0  0  0  0  0  0  0  0  0  0  0
   29.1260   18.8880   10.8450 C   0  0  0  0  0  0  0  0  0  0  0  0
   27.9180   18.5500   11.4990 C   0  0  0  0  0  0  0  0  0  0  0  0
   27.2950   17.3270   11.2010 C   0  0  0  0  0  0  0  0  0  0  0  0
   27.8170   16.4620   10.2170 C   0  0  0  0  0  0  0  0  0  0  0  0
   29.0300   16.8060    9.5850 C   0  0  0  0  0  0  0  0  0  0  0  0
   29.6900   18.0070    9.9040 C   0  0  0  0  0  0  0  0  0  0  0  0
   29.6310   19.8180   11.0570 H   0  0  0  0  0  0  0  0  0  0  0  0
   26.3630   17.0850   11.6900 H   0  0  0  0  0  0  0  0  0  0  0  0
   29.4290   16.1630    8.8170 H   0  0  0  0  0  0  0  0  0  0  0  0
   27.3040   19.3780   12.4060 O   0  0  0  0  0  0  0  0  0  0  0  0
   30.6100   18.2700    9.4020 H   0  0  0  0  0  0  0  0  0  0  0  0
   27.2150   20.7360   12.0050 C   0  0  1  0  0  0  0  0  0  0  0  0
   28.1880   21.2300   12.0400 H   0  0  0  0  0  0  0  0  0  0  0  0
   26.8120   20.8240   10.9930 H   0  0  0  0  0  0  0  0  0  0  0  0
   26.5400   21.2680   12.6770 H   0  0  0  0  0  0  0  0  0  0  0  0
   22.5250   14.2480   10.5690 H   0  0  0  0  0  0  0  0  0  0  0  0
  1  2  2  0
  1 18  1  0
  1 32  1  0
  2  3  1  0
  2 19  1  0
  3  4  2  0
  3 20  1  0
  4  5  1  0
  4 17  1  0
  5  6  1  0
  6  7  1  0
  6 21  1  6
  6 22  1  0
  7  8  1  1
  7 12  1  0
  7 17  1  0
  8  9  2  0
  8 44  1  0
  9 10  1  0
  9 11  1  0
 10 23  1  0
 10 24  1  0
 11 12  1  0
 11 25  1  6
 11 26  1  0
 12 13  1  0
 12 27  1  6
 13 14  1  6
 13 15  1  0
 13 16  1  0
 17 18  2  0
 18 28  1  0
 29 30  2  0
 29 34  1  0
 29 35  1  0
 30 31  1  0
 30 38  1  0
 31 32  2  0
 31 36  1  0
 32 33  1  0
 33 34  2  0
 33 37  1  0
 34 39  1  0
 38 40  1  0
 40 41  1  6
 40 42  1  0
 40 43  1  0
M  CHG  1   8   1
M  END
