spiro5
     RDKit          3D

 43 46  0  0  1  0  0  0  0  0999 V2000
   27.1370   15.1290    9.6390 C   0  0  0  0  0  0  0  0  0  0  0  0
   27.8510   13.9280    9.4220 C   0  0  0  0  0  0  0  0  0  0  0  0
   27.2030   12.7680    8.9340 C   0  0  0  0  0  0  0  0  0  0  0  0
   25.8260   12.8420    8.6510 C   0  0  0  0  0  0  0  0  0  0  0  0
   25.0210   11.8430    8.1790 O   0  0  0  0  0  0  0  0  0  0  0  0
   23.6670   12.3420    8.1610 C   0  0  1  0  0  0  0  0  0  0  0  0
   23.7370   13.8860    8.3260 C   0  0  2  0  0  0  0  0  0  0  0  0
   22.7590   14.4310    9.2660 N   0  0  0  0  0  0  0  0  0  0  0  0
   22.3500   15.6470    8.8830 C   0  0  0  0  0  0  0  0  0  0  0  0
   21.5760   16.4390    9.6460 N   0  0  0  0  0  0  0  0  0  0  0  0
   22.8820   16.0370    7.5430 C   0  0  1  0  0  0  0  0  0  0  0  0
   23.4520   14.6940    7.0340 C   0  0  1  0  0  0  0  0  0  0  0  0
   24.5910   14.8070    5.9920 C   0  0  1  0  0  0  0  0  0  0  0  0
   25.6380   15.5070    6.4210 F   0  0  0  0  0  0  0  0  0  0  0  0
   24.9920   13.5820    5.6620 F   0  0  0  0  0  0  0  0  0  0  0  0
   24.1250   15.3980    4.8920 F   0  0  0  0  0  0  0  0  0  0  0  0
   25.1390   14.0290    8.8210 C   0  0  0  0  0  0  0  0  0  0  0  0
   25.7550   15.1730    9.3430 C   0  0  0  0  0  0  0  0  0  0  0  0
   28.9110   13.9160    9.6130 H   0  0  0  0  0  0  0  0  0  0  0  0
   27.7520   11.8500    8.7760 H   0  0  0  0  0  0  0  0  0  0  0  0
   23.1640   12.0370    7.2440 H   0  0  0  0  0  0  0  0  0  0  0  0
   23.1190   11.8870    8.9870 H   0  0  0  0  0  0  0  0  0  0  0  0
   21.3100   17.3820    9.3770 H   0  0  0  0  0  0  0  0  0  0  0  0
   21.3590   16.1640   10.6070 H   0  0  0  0  0  0  0  0  0  0  0  0
   22.1060   16.4460    6.8970 H   0  0  0  0  0  0  0  0  0  0  0  0
   23.6640   16.7850    7.6820 H   0  0  0  0  0  0  0  0  0  0  0  0
   22.6290   14.1830    6.5290 H   0  0  0  0  0  0  0  0  0  0  0  0
   25.1860   16.0830    9.4710 H   0  0  0  0  0  0  0  0  0  0  0  0
   28.9310   18.7500   10.8680 C   0  0  0  0  0  0  0  0  0  0  0  0
   29.6170   17.9560   10.0210 N   0  0  0  0  0  0  0  0  0  0  0  0
   29.0560   16.7820    9.6620 C   0  0  0  0  0  0  0  0  0  0  0  0
   27.7970   16.3420   10.1340 C   0  0  0  0  0  0  0  0  0  0  0  0
   27.1380   17.1530   11.0760 C   0  0  0  0  0  0  0  0  0  0  0  0
   27.6860   18.3880   11.4430 C   0  0  0  0  0  0  0  0  0  0  0  0
   29.4200   19.6830   11.1070 H   0  0  0  0  0  0  0  0  0  0  0  0
   29.6270   16.1980    8.9530 H   0  0  0  0  0  0  0  0  0  0  0  0
   26.1810   16.8600   11.4850 H   0  0  0  0  0  0  0  0  0  0  0  0
   26.9560   19.1610   12.3130 O   0  0  0  0  0  0  0  0  0  0  0  0
   27.1210   20.5580   12.1760 C   0  0  1  0  0  0  0  0  0  0  0  0
   26.9150   20.8730   11.1530 H   0  0  0  0  0  0  0  0  0  0  0  0
   26.4330   21.0830   12.8420 H   0  0  0  0  0  0  0  0  0  0  0  0
   28.1390   20.8270   12.4390 H   0  0  0  0  0  0  0  0  0  0  0  0
   22.6310   14.0560   10.2100 H   0  0  0  0  0  0  0  0  0  0  0  0
  1  2  2  0
  1 18  1  0
  1 32  1  0
  2  3  1  0
  2 19  1  0
  3  4  2  0
  3 20  1  0
  4  5  1  0
  4 17  1  0
  5  6  1  0
  6  7  1  0
  6 21  1  6
  6 22  1  0
  7  8  1  1
  7 12  1  0
  7 17  1  0
  8  9  2  0
  8 43  1  0
  9 10  1  0
  9 11  1  0
 10 23  1  0
 10 24  1  0
 11 12  1  0
 11 25  1  6
 11 26  1  0
 12 13  1  0
 12 27  1  6
 13 14  1  1
 13 15  1  0
 13 16  1  0
 17 18  2  0
 18 28  1  0
 29 30  2  0
 29 34  1  0
 29 35  1  0
 30 31  1  0
 31 32  2  0
 31 36  1  0
 32 33  1  0
 33 34  2  0
 33 37  1  0
 34 38  1  0
 38 39  1  0
 39 40  1  6
 39 41  1  0
 39 42  1  0
M  CHG  1   8   1
M  END
