spiro10
     RDKit          3D

 48 51  0  0  1  0  0  0  0  0999 V2000
   27.1120   15.0960    9.6450 C   0  0  0  0  0  0  0  0  0  0  0  0
   27.7100   13.8390    9.3470 C   0  0  0  0  0  0  0  0  0  0  0  0
   26.9440   12.7440    8.8870 C   0  0  0  0  0  0  0  0  0  0  0  0
   25.5620   12.9230    8.7220 C   0  0  0  0  0  0  0  0  0  0  0  0
   24.6690   11.9920    8.2790 O   0  0  0  0  0  0  0  0  0  0  0  0
   23.3590   12.5760    8.3540 C   0  0  1  0  0  0  0  0  0  0  0  0
   23.5330   14.1040    8.6030 C   0  0  2  0  0  0  0  0  0  0  0  0
   22.6370   14.6100    9.6440 N   0  0  0  0  0  0  0  0  0  0  0  0
   22.0820   15.7750    9.2910 C   0  0  0  0  0  0  0  0  0  0  0  0
   21.1960   16.4270   10.0570 N   0  0  0  0  0  0  0  0  0  0  0  0
   22.5620   16.2630    7.9680 C   0  0  2  0  0  0  0  0  0  0  0  0
   23.1780   14.9820    7.3670 C   0  0  1  0  0  0  0  0  0  0  0  0
   24.2780   15.2530    6.3120 C   0  0  1  0  0  0  0  0  0  0  0  0
   23.7280   15.8880    5.2800 F   0  0  0  0  0  0  0  0  0  0  0  0
   25.2580   16.0230    6.7820 F   0  0  0  0  0  0  0  0  0  0  0  0
   24.8040   14.1110    5.8630 F   0  0  0  0  0  0  0  0  0  0  0  0
   24.9750   14.1460    8.9890 C   0  0  0  0  0  0  0  0  0  0  0  0
   25.7120   15.2340    9.4780 C   0  0  0  0  0  0  0  0  0  0  0  0
   28.7740   13.7040    9.4600 H   0  0  0  0  0  0  0  0  0  0  0  0
   27.4090   11.7960    8.6640 H   0  0  0  0  0  0  0  0  0  0  0  0
   22.8100   12.3560    7.4380 H   0  0  0  0  0  0  0  0  0  0  0  0
   22.8180   12.1040    9.1760 H   0  0  0  0  0  0  0  0  0  0  0  0
   20.8500   17.3690    9.8500 H   0  0  0  0  0  0  0  0  0  0  0  0
   21.0680   16.1200   11.0300 H   0  0  0  0  0  0  0  0  0  0  0  0
   23.3190   17.0340    8.1330 H   0  0  0  0  0  0  0  0  0  0  0  0
   21.7660   16.6890    7.3600 H   0  0  0  0  0  0  0  0  0  0  0  0
   22.3670   14.4730    6.8420 H   0  0  0  0  0  0  0  0  0  0  0  0
   25.2140   16.1760    9.6530 H   0  0  0  0  0  0  0  0  0  0  0  0
   29.4630   18.4850   10.6740 C   0  0  0  0  0  0  0  0  0  0  0  0
   30.0200   17.5040    9.9360 N   0  0  0  0  0  0  0  0  0  0  0  0
   29.2580   16.4320    9.6330 C   0  0  0  0  0  0  0  0  0  0  0  0
   27.9210   16.2590   10.0630 C   0  0  0  0  0  0  0  0  0  0  0  0
   27.3770   17.2830   10.8690 C   0  0  0  0  0  0  0  0  0  0  0  0
   28.1480   18.4190   11.1680 C   0  0  0  0  0  0  0  0  0  0  0  0
   30.0880   19.3430   10.8770 H   0  0  0  0  0  0  0  0  0  0  0  0
   29.7320   15.6960    9.0010 H   0  0  0  0  0  0  0  0  0  0  0  0
   26.3640   17.2160   11.2400 H   0  0  0  0  0  0  0  0  0  0  0  0
   27.5760   19.5070   11.9390 C   0  0  0  0  0  0  0  0  0  0  0  0
   27.0520   20.4170   12.5590 C   0  0  0  0  0  0  0  0  0  0  0  0
   26.3840   21.5080   13.2820 C   0  0  1  0  0  0  0  0  0  0  0  0
   26.4650   22.4260   12.7040 H   0  0  0  0  0  0  0  0  0  0  0  0
   25.3290   21.2490   13.3380 H   0  0  0  0  0  0  0  0  0  0  0  0
   26.9160   21.6430   14.5940 O   0  0  0  0  0  0  0  0  0  0  0  0
   28.0780   22.4550   14.6620 C   0  0  1  0  0  0  0  0  0  0  0  0
   27.8580   23.4780   14.3540 H   0  0  0  0  0  0  0  0  0  0  0  0
   28.4420   22.4850   15.6880 H   0  0  0  0  0  0  0  0  0  0  0  0
   28.8810   22.0690   14.0350 H   0  0  0  0  0  0  0  0  0  0  0  0
   22.5240   14.1700   10.5730 H   0  0  0  0  0  0  0  0  0  0  0  0
  1  2  2  0
  1 18  1  0
  1 32  1  0
  2  3  1  0
  2 19  1  0
  3  4  2  0
  3 20  1  0
  4  5  1  0
  4 17  1  0
  5  6  1  0
  6  7  1  0
  6 21  1  6
  6 22  1  0
  7  8  1  1
  7 12  1  0
  7 17  1  0
  8  9  2  0
  8 48  1  0
  9 10  1  0
  9 11  1  0
 10 23  1  0
 10 24  1  0
 11 12  1  0
 11 25  1  1
 11 26  1  0
 12 13  1  0
 12 27  1  6
 13 14  1  6
 13 15  1  0
 13 16  1  0
 17 18  2  0
 18 28  1  0
 29 30  2  0
 29 34  1  0
 29 35  1  0
 30 31  1  0
 31 32  2  0
 31 36  1  0
 32 33  1  0
 33 34  2  0
 33 37  1  0
 34 38  1  0
 38 39  3  0
 39 40  1  0
 40 41  1  6
 40 42  1  0
 40 43  1  0
 43 44  1  0
 44 45  1  6
 44 46  1  0
 44 47  1  0
M  CHG  1   8   1
M  END
