spiro6
     RDKit          3D

 44 47  0  0  1  0  0  0  0  0999 V2000
   27.1090   15.0210    9.6360 C   0  0  0  0  0  0  0  0  0  0  0  0
   27.7030   13.7680    9.3240 C   0  0  0  0  0  0  0  0  0  0  0  0
   26.9310   12.6840    8.8450 C   0  0  0  0  0  0  0  0  0  0  0  0
   25.5510   12.8730    8.6690 C   0  0  0  0  0  0  0  0  0  0  0  0
   24.6510   11.9570    8.2040 O   0  0  0  0  0  0  0  0  0  0  0  0
   23.3440   12.5550    8.2680 C   0  0  1  0  0  0  0  0  0  0  0  0
   23.5260   14.0720    8.5720 C   0  0  2  0  0  0  0  0  0  0  0  0
   22.6500   14.5460    9.6450 N   0  0  0  0  0  0  0  0  0  0  0  0
   22.1560   15.7550    9.3740 C   0  0  0  0  0  0  0  0  0  0  0  0
   21.3860   16.4260   10.2380 N   0  0  0  0  0  0  0  0  0  0  0  0
   22.5690   16.2720    8.0390 C   0  0  2  0  0  0  0  0  0  0  0  0
   23.1680   15.0110    7.3800 C   0  0  1  0  0  0  0  0  0  0  0  0
   24.2600   15.3080    6.3190 C   0  0  1  0  0  0  0  0  0  0  0  0
   23.7280   16.0140    5.3270 F   0  0  0  0  0  0  0  0  0  0  0  0
   25.2790   16.0160    6.8030 F   0  0  0  0  0  0  0  0  0  0  0  0
   24.7230   14.1670    5.8080 F   0  0  0  0  0  0  0  0  0  0  0  0
   24.9690   14.0940    8.9500 C   0  0  0  0  0  0  0  0  0  0  0  0
   25.7110   15.1680    9.4640 C   0  0  0  0  0  0  0  0  0  0  0  0
   28.7670   13.6270    9.4400 H   0  0  0  0  0  0  0  0  0  0  0  0
   27.3940   11.7360    8.6100 H   0  0  0  0  0  0  0  0  0  0  0  0
   22.8160   12.3750    7.3320 H   0  0  0  0  0  0  0  0  0  0  0  0
   22.7780   12.0580    9.0580 H   0  0  0  0  0  0  0  0  0  0  0  0
   21.0010   17.3580   10.0570 H   0  0  0  0  0  0  0  0  0  0  0  0
   21.3210   16.0850   11.2070 H   0  0  0  0  0  0  0  0  0  0  0  0
   23.3100   17.0600    8.1740 H   0  0  0  0  0  0  0  0  0  0  0  0
   21.7230   16.6760    7.4800 H   0  0  0  0  0  0  0  0  0  0  0  0
   22.3420   14.5380    6.8490 H   0  0  0  0  0  0  0  0  0  0  0  0
   25.2150   16.1100    9.6500 H   0  0  0  0  0  0  0  0  0  0  0  0
   29.4200   18.4220   10.7220 C   0  0  0  0  0  0  0  0  0  0  0  0
   29.9910   17.4600    9.9690 N   0  0  0  0  0  0  0  0  0  0  0  0
   29.2450   16.3810    9.6460 C   0  0  0  0  0  0  0  0  0  0  0  0
   27.9120   16.1800   10.0750 C   0  0  0  0  0  0  0  0  0  0  0  0
   27.3550   17.1830   10.8990 C   0  0  0  0  0  0  0  0  0  0  0  0
   28.1040   18.3300   11.2110 C   0  0  0  0  0  0  0  0  0  0  0  0
   30.0310   19.2870   10.9310 H   0  0  0  0  0  0  0  0  0  0  0  0
   29.7260   15.6650    8.9970 H   0  0  0  0  0  0  0  0  0  0  0  0
   26.3420   17.0980   11.2640 H   0  0  0  0  0  0  0  0  0  0  0  0
   27.4960   19.4010   11.9760 C   0  0  0  0  0  0  0  0  0  0  0  0
   26.9000   20.2880   12.5640 C   0  0  0  0  0  0  0  0  0  0  0  0
   26.1240   21.3440   13.2240 C   0  0  1  0  0  0  0  0  0  0  0  0
   26.4380   22.3170   12.8470 H   0  0  0  0  0  0  0  0  0  0  0  0
   25.0690   21.2190   12.9860 H   0  0  0  0  0  0  0  0  0  0  0  0
   26.2540   21.2940   14.3040 H   0  0  0  0  0  0  0  0  0  0  0  0
   22.5240   14.0750   10.5600 H   0  0  0  0  0  0  0  0  0  0  0  0
  1  2  2  0
  1 18  1  0
  1 32  1  0
  2  3  1  0
  2 19  1  0
  3  4  2  0
  3 20  1  0
  4  5  1  0
  4 17  1  0
  5  6  1  0
  6  7  1  0
  6 21  1  6
  6 22  1  0
  7  8  1  1
  7 12  1  0
  7 17  1  0
  8  9  2  0
  8 44  1  0
  9 10  1  0
  9 11  1  0
 10 23  1  0
 10 24  1  0
 11 12  1  0
 11 25  1  1
 11 26  1  0
 12 13  1  0
 12 27  1  6
 13 14  1  6
 13 15  1  0
 13 16  1  0
 17 18  2  0
 18 28  1  0
 29 30  2  0
 29 34  1  0
 29 35  1  0
 30 31  1  0
 31 32  2  0
 31 36  1  0
 32 33  1  0
 33 34  2  0
 33 37  1  0
 34 38  1  0
 38 39  3  0
 39 40  1  0
 40 41  1  6
 40 42  1  0
 40 43  1  0
M  CHG  1   8   1
M  END
