spiro2
     RDKit          3D

 38 41  0  0  1  0  0  0  0  0999 V2000
   27.0000   15.2280    9.9330 C   0  0  0  0  0  0  0  0  0  0  0  0
   27.7470   14.0320    9.7560 C   0  0  0  0  0  0  0  0  0  0  0  0
   27.1440   12.8570    9.2440 C   0  0  0  0  0  0  0  0  0  0  0  0
   25.7810   12.8990    8.8970 C   0  0  0  0  0  0  0  0  0  0  0  0
   25.0120   11.8690    8.4230 O   0  0  0  0  0  0  0  0  0  0  0  0
   23.6560   12.3550    8.3320 C   0  0  1  0  0  0  0  0  0  0  0  0
   23.6950   13.9060    8.4780 C   0  0  2  0  0  0  0  0  0  0  0  0
   22.6870   14.4530    9.3890 N   0  0  0  0  0  0  0  0  0  0  0  0
   22.2650   15.6500    8.9620 C   0  0  0  0  0  0  0  0  0  0  0  0
   21.4220   16.4290    9.6540 N   0  0  0  0  0  0  0  0  0  0  0  0
   22.8540   16.0420    7.6470 C   0  0  1  0  0  0  0  0  0  0  0  0
   23.4350   14.7000    7.1640 C   0  0  1  0  0  0  0  0  0  0  0  0
   24.5800   14.8330    6.1340 C   0  0  1  0  0  0  0  0  0  0  0  0
   24.9360   13.6260    5.7090 F   0  0  0  0  0  0  0  0  0  0  0  0
   24.1480   15.5150    5.0790 F   0  0  0  0  0  0  0  0  0  0  0  0
   25.6500   15.4600    6.6090 F   0  0  0  0  0  0  0  0  0  0  0  0
   25.0720   14.0800    9.0200 C   0  0  0  0  0  0  0  0  0  0  0  0
   25.6400   15.2430    9.5610 C   0  0  0  0  0  0  0  0  0  0  0  0
   28.7920   14.0140   10.0310 H   0  0  0  0  0  0  0  0  0  0  0  0
   27.7120   11.9450    9.1330 H   0  0  0  0  0  0  0  0  0  0  0  0
   23.2080   12.0350    7.3880 H   0  0  0  0  0  0  0  0  0  0  0  0
   23.0780   11.8990    9.1390 H   0  0  0  0  0  0  0  0  0  0  0  0
   21.1750   17.3720    9.3630 H   0  0  0  0  0  0  0  0  0  0  0  0
   21.2000   16.1950   10.6230 H   0  0  0  0  0  0  0  0  0  0  0  0
   22.1030   16.4490    6.9710 H   0  0  0  0  0  0  0  0  0  0  0  0
   23.6300   16.7910    7.8050 H   0  0  0  0  0  0  0  0  0  0  0  0
   22.6160   14.1940    6.6550 H   0  0  0  0  0  0  0  0  0  0  0  0
   25.0520   16.1440    9.6520 H   0  0  0  0  0  0  0  0  0  0  0  0
   28.6320   18.8310   11.2460 C   0  0  0  0  0  0  0  0  0  0  0  0
   29.3680   18.1200   10.3970 N   0  0  0  0  0  0  0  0  0  0  0  0
   28.8600   16.9370   10.0000 C   0  0  0  0  0  0  0  0  0  0  0  0
   27.6090   16.4640   10.4490 C   0  0  0  0  0  0  0  0  0  0  0  0
   26.9530   17.2960   11.3840 C   0  0  0  0  0  0  0  0  0  0  0  0
   27.4700   18.4720   11.7880 N   0  0  0  0  0  0  0  0  0  0  0  0
   29.0290   19.7880   11.5480 H   0  0  0  0  0  0  0  0  0  0  0  0
   29.4500   16.3800    9.2860 H   0  0  0  0  0  0  0  0  0  0  0  0
   25.9960   17.0310   11.8040 H   0  0  0  0  0  0  0  0  0  0  0  0
   22.5200   14.0800   10.3280 H   0  0  0  0  0  0  0  0  0  0  0  0
  1  2  1  0
  1 18  2  0
  1 32  1  0
  2  3  2  0
  2 19  1  0
  3  4  1  0
  3 20  1  0
  4  5  1  0
  4 17  2  0
  5  6  1  0
  6  7  1  0
  6 21  1  6
  6 22  1  0
  7  8  1  1
  7 12  1  0
  7 17  1  0
  8  9  2  0
  8 38  1  0
  9 10  1  0
  9 11  1  0
 10 23  1  0
 10 24  1  0
 11 12  1  0
 11 25  1  6
 11 26  1  0
 12 13  1  0
 12 27  1  6
 13 14  1  6
 13 15  1  0
 13 16  1  0
 17 18  1  0
 18 28  1  0
 29 30  2  0
 29 34  1  0
 29 35  1  0
 30 31  1  0
 31 32  2  0
 31 36  1  0
 32 33  1  0
 33 34  2  0
 33 37  1  0
M  CHG  1   8   1
M  END
