18625-1 flip
     RDKit          3D

 38 39  0  0  1  0  0  0  0  0999 V2000
   24.5889    2.9169   32.1207 C   0  0  0  0  0  0  0  0  0  0  0  0
   23.2896    3.1515   31.6709 C   0  0  0  0  0  0  0  0  0  0  0  0
   23.0400    4.1850   30.7494 C   0  0  0  0  0  0  0  0  0  0  0  0
   24.1100    4.9614   30.2874 C   0  0  0  0  0  0  0  0  0  0  0  0
   25.4064    4.7236   30.7443 C   0  0  0  0  0  0  0  0  0  0  0  0
   25.6465    3.7016   31.6620 C   0  0  0  0  0  0  0  0  0  0  0  0
   21.6317    4.4732   30.2249 C   0  0  2  0  0  0  0  0  0  0  0  0
   20.8862    5.4826   31.1004 C   0  0  0  0  0  0  0  0  0  0  0  0
   21.2617    6.7618   30.9591 N   0  0  0  0  0  0  0  0  0  0  0  0
   20.7881    7.9027   31.5737 C   0  0  0  0  0  0  0  0  0  0  0  0
   20.0120    5.0825   31.8646 O   0  0  0  0  0  0  0  0  0  0  0  0
   21.5730    8.9594   31.3085 N   0  0  0  0  0  0  0  0  0  0  0  0
   21.2458   10.1714   31.8329 C   0  0  0  0  0  0  0  0  0  0  0  0
   20.1169   10.3555   32.6381 C   0  0  0  0  0  0  0  0  0  0  0  0
   19.3068    9.2382   32.8930 C   0  0  0  0  0  0  0  0  0  0  0  0
   19.6420    8.0008   32.3599 C   0  0  0  0  0  0  0  0  0  0  0  0
   18.1508    9.2956   33.6710 N   0  0  0  0  0  0  0  0  0  0  0  0
   19.8126   11.6736   33.1825 C   0  0  0  0  0  0  0  0  0  0  0  0
   22.0815   11.2388   31.5470 O   0  0  0  0  0  0  0  0  0  0  0  0
   23.2000   11.0787   30.6729 C   0  0  2  0  0  0  0  0  0  0  0  0
   22.7497   11.1231   29.2060 C   0  0  1  0  0  0  0  0  0  0  0  0
   19.5640   12.7158   33.6194 N   0  0  0  0  0  0  0  0  0  0  0  0
   24.7718    2.1182   32.8245 H   0  0  0  0  0  0  0  0  0  0  0  0
   23.9377    5.7507   29.5680 H   0  0  0  0  0  0  0  0  0  0  0  0
   19.0179    7.1421   32.5457 H   0  0  0  0  0  0  0  0  0  0  0  0
   21.0517    3.5504   30.1907 H   0  0  0  0  0  0  0  0  0  0  0  0
   21.6620    4.8316   29.1961 H   0  0  0  0  0  0  0  0  0  0  0  0
   22.0305    6.9687   30.3442 H   0  0  0  0  0  0  0  0  0  0  0  0
   17.7141    8.4302   33.9475 H   0  0  0  0  0  0  0  0  0  0  0  0
   17.9413   10.1575   34.1555 H   0  0  0  0  0  0  0  0  0  0  0  0
   23.7741   10.1755   30.8920 H   0  0  0  0  0  0  0  0  0  0  0  0
   23.8773   11.9120   30.8619 H   0  0  0  0  0  0  0  0  0  0  0  0
   23.6041   11.0644   28.5324 H   0  0  0  0  0  0  0  0  0  0  0  0
   22.0862   10.2909   28.9708 H   0  0  0  0  0  0  0  0  0  0  0  0
   22.2129   12.0473   28.9916 H   0  0  0  0  0  0  0  0  0  0  0  0
   26.6509    3.5134   32.0138 H   0  0  0  0  0  0  0  0  0  0  0  0
   26.2251    5.3294   30.3824 H   0  0  0  0  0  0  0  0  0  0  0  0
   22.0196    2.1343   32.2599 Cl  0  0  0  0  0  0  0  0  0  0  0  0
  1  2  1  0
  1  6  2  0
  1 23  1  0
  2  3  2  0
  2 38  1  0
  3  4  1  0
  3  7  1  0
  4  5  2  0
  4 24  1  0
  5  6  1  0
  5 37  1  0
  6 36  1  0
  7  8  1  0
  7 26  1  6
  7 27  1  0
  8  9  1  0
  8 11  2  0
  9 10  1  0
  9 28  1  0
 10 12  1  0
 10 16  2  0
 12 13  2  0
 13 14  1  0
 13 19  1  0
 14 15  2  0
 14 18  1  0
 15 16  1  0
 15 17  1  0
 16 25  1  0
 17 29  1  0
 17 30  1  0
 18 22  3  0
 19 20  1  0
 20 21  1  0
 20 31  1  1
 20 32  1  0
 21 33  1  6
 21 34  1  0
 21 35  1  0
M  END
