18639-1 flip
     RDKit          3D

 48 49  0  0  1  0  0  0  0  0999 V2000
   24.8258    3.0242   31.7570 C   0  0  0  0  0  0  0  0  0  0  0  0
   23.4793    3.1461   31.3904 C   0  0  0  0  0  0  0  0  0  0  0  0
   23.0814    4.2735   30.6551 C   0  0  0  0  0  0  0  0  0  0  0  0
   24.0282    5.2259   30.2679 C   0  0  0  0  0  0  0  0  0  0  0  0
   25.3792    5.0981   30.6254 C   0  0  0  0  0  0  0  0  0  0  0  0
   25.7734    3.9927   31.3941 C   0  0  0  0  0  0  0  0  0  0  0  0
   21.6209    4.4615   30.2391 C   0  0  2  0  0  0  0  0  0  0  0  0
   20.8887    5.4769   31.1194 C   0  0  0  0  0  0  0  0  0  0  0  0
   21.2673    6.7536   30.9676 N   0  0  0  0  0  0  0  0  0  0  0  0
   20.8029    7.9034   31.5738 C   0  0  0  0  0  0  0  0  0  0  0  0
   20.0194    5.0833   31.8921 O   0  0  0  0  0  0  0  0  0  0  0  0
   21.5931    8.9582   31.3065 N   0  0  0  0  0  0  0  0  0  0  0  0
   21.2638   10.1721   31.8287 C   0  0  0  0  0  0  0  0  0  0  0  0
   20.1327   10.3605   32.6298 C   0  0  0  0  0  0  0  0  0  0  0  0
   19.3186    9.2464   32.8837 C   0  0  0  0  0  0  0  0  0  0  0  0
   19.6535    8.0079   32.3542 C   0  0  0  0  0  0  0  0  0  0  0  0
   26.3517    5.9985   30.2361 O   0  0  0  0  0  0  0  0  0  0  0  0
   25.9980    7.1595   29.4926 C   0  0  1  0  0  0  0  0  0  0  0  0
   22.5095    2.2113   31.7098 O   0  0  0  0  0  0  0  0  0  0  0  0
   22.9038    0.9378   32.2150 C   0  0  1  0  0  0  0  0  0  0  0  0
   18.1588    9.3079   33.6555 N   0  0  0  0  0  0  0  0  0  0  0  0
   19.8291   11.6804   33.1704 C   0  0  0  0  0  0  0  0  0  0  0  0
   22.0981   11.2404   31.5429 O   0  0  0  0  0  0  0  0  0  0  0  0
   23.2113   11.0879   30.6632 C   0  0  2  0  0  0  0  0  0  0  0  0
   22.7504   11.1260   29.1991 C   0  0  1  0  0  0  0  0  0  0  0  0
   19.5814   12.7240   33.6037 N   0  0  0  0  0  0  0  0  0  0  0  0
   25.1611    2.1770   32.3358 H   0  0  0  0  0  0  0  0  0  0  0  0
   23.6984    6.0633   29.6738 H   0  0  0  0  0  0  0  0  0  0  0  0
   19.0253    7.1520   32.5394 H   0  0  0  0  0  0  0  0  0  0  0  0
   21.0826    3.5142   30.2765 H   0  0  0  0  0  0  0  0  0  0  0  0
   21.5709    4.7953   29.2024 H   0  0  0  0  0  0  0  0  0  0  0  0
   22.0465    6.9308   30.3534 H   0  0  0  0  0  0  0  0  0  0  0  0
   26.8955    7.7492   29.3048 H   0  0  0  0  0  0  0  0  0  0  0  0
   25.5673    6.9017   28.5238 H   0  0  0  0  0  0  0  0  0  0  0  0
   25.3002    7.7921   30.0434 H   0  0  0  0  0  0  0  0  0  0  0  0
   22.0244    0.2998   32.3064 H   0  0  0  0  0  0  0  0  0  0  0  0
   23.6013    0.4359   31.5416 H   0  0  0  0  0  0  0  0  0  0  0  0
   23.3537    1.0188   33.2057 H   0  0  0  0  0  0  0  0  0  0  0  0
   17.7222    8.4433   33.9354 H   0  0  0  0  0  0  0  0  0  0  0  0
   17.9513   10.1699   34.1410 H   0  0  0  0  0  0  0  0  0  0  0  0
   23.7923   10.1898   30.8831 H   0  0  0  0  0  0  0  0  0  0  0  0
   23.8827   11.9272   30.8467 H   0  0  0  0  0  0  0  0  0  0  0  0
   23.5991   11.0745   28.5180 H   0  0  0  0  0  0  0  0  0  0  0  0
   22.0879   10.2914   28.9698 H   0  0  0  0  0  0  0  0  0  0  0  0
   22.2061   12.0471   28.9891 H   0  0  0  0  0  0  0  0  0  0  0  0
   27.7859    4.7980   32.2566 O   0  0  0  0  0  0  0  0  0  0  0  0
   27.1773    3.8250   31.8234 N   0  0  0  0  0  0  0  0  0  0  0  0
   27.6465    2.6907   31.7859 O   0  0  0  0  0  0  0  0  0  0  0  0
  1  2  1  0
  1  6  2  0
  1 27  1  0
  2  3  2  0
  2 19  1  0
  3  4  1  0
  3  7  1  0
  4  5  2  0
  4 28  1  0
  5  6  1  0
  5 17  1  0
  6 47  1  0
  7  8  1  0
  7 30  1  6
  7 31  1  0
  8  9  1  0
  8 11  2  0
  9 10  1  0
  9 32  1  0
 10 12  1  0
 10 16  2  0
 12 13  2  0
 13 14  1  0
 13 23  1  0
 14 15  2  0
 14 22  1  0
 15 16  1  0
 15 21  1  0
 16 29  1  0
 17 18  1  0
 18 33  1  6
 18 34  1  0
 18 35  1  0
 19 20  1  0
 20 36  1  1
 20 37  1  0
 20 38  1  0
 21 39  1  0
 21 40  1  0
 22 26  3  0
 23 24  1  0
 24 25  1  0
 24 41  1  1
 24 42  1  0
 25 43  1  6
 25 44  1  0
 25 45  1  0
 46 47  2  0
 47 48  1  0
M  CHG  2  47   1  48  -1
M  END
