18637-1 flip
     RDKit          3D

 53 54  0  0  1  0  0  0  0  0999 V2000
   24.7915    3.0630   31.8472 C   0  0  0  0  0  0  0  0  0  0  0  0
   23.4422    3.1875   31.4899 C   0  0  0  0  0  0  0  0  0  0  0  0
   23.0523    4.2691   30.6852 C   0  0  0  0  0  0  0  0  0  0  0  0
   24.0070    5.1768   30.2197 C   0  0  0  0  0  0  0  0  0  0  0  0
   25.3595    5.0494   30.5687 C   0  0  0  0  0  0  0  0  0  0  0  0
   25.7478    3.9891   31.4048 C   0  0  0  0  0  0  0  0  0  0  0  0
   21.5870    4.4588   30.2861 C   0  0  2  0  0  0  0  0  0  0  0  0
   20.8672    5.4863   31.1623 C   0  0  0  0  0  0  0  0  0  0  0  0
   21.2700    6.7566   31.0171 N   0  0  0  0  0  0  0  0  0  0  0  0
   20.8073    7.9161   31.6076 C   0  0  0  0  0  0  0  0  0  0  0  0
   19.9805    5.1075   31.9233 O   0  0  0  0  0  0  0  0  0  0  0  0
   21.5888    8.9701   31.3141 N   0  0  0  0  0  0  0  0  0  0  0  0
   21.2573   10.1927   31.8125 C   0  0  0  0  0  0  0  0  0  0  0  0
   20.1299   10.3921   32.6165 C   0  0  0  0  0  0  0  0  0  0  0  0
   19.3273    9.2777   32.9044 C   0  0  0  0  0  0  0  0  0  0  0  0
   19.6656    8.0307   32.3985 C   0  0  0  0  0  0  0  0  0  0  0  0
   26.3460    5.9229   30.1329 O   0  0  0  0  0  0  0  0  0  0  0  0
   26.0080    6.9741   29.2328 C   0  0  1  0  0  0  0  0  0  0  0  0
   22.4574    2.2948   31.8794 O   0  0  0  0  0  0  0  0  0  0  0  0
   22.8239    1.1056   32.5749 C   0  0  1  0  0  0  0  0  0  0  0  0
   18.1771    9.3462   33.6898 N   0  0  0  0  0  0  0  0  0  0  0  0
   19.8177   11.7221   33.1265 C   0  0  0  0  0  0  0  0  0  0  0  0
   22.0866   11.2582   31.5025 O   0  0  0  0  0  0  0  0  0  0  0  0
   23.2199   11.0833   30.6525 C   0  0  2  0  0  0  0  0  0  0  0  0
   22.7949   11.0885   29.1772 C   0  0  1  0  0  0  0  0  0  0  0  0
   19.5626   12.7737   33.5359 N   0  0  0  0  0  0  0  0  0  0  0  0
   25.0926    2.2394   32.4696 H   0  0  0  0  0  0  0  0  0  0  0  0
   23.6785    5.9827   29.5823 H   0  0  0  0  0  0  0  0  0  0  0  0
   19.0450    7.1758   32.6094 H   0  0  0  0  0  0  0  0  0  0  0  0
   21.0475    3.5127   30.3396 H   0  0  0  0  0  0  0  0  0  0  0  0
   21.5250    4.7822   29.2468 H   0  0  0  0  0  0  0  0  0  0  0  0
   22.0597    6.9176   30.4109 H   0  0  0  0  0  0  0  0  0  0  0  0
   25.5906    6.5880   28.3012 H   0  0  0  0  0  0  0  0  0  0  0  0
   25.3017    7.6745   29.6812 H   0  0  0  0  0  0  0  0  0  0  0  0
   26.9080    7.5346   28.9800 H   0  0  0  0  0  0  0  0  0  0  0  0
   21.9333    0.5009   32.7474 H   0  0  0  0  0  0  0  0  0  0  0  0
   23.5224    0.5000   31.9945 H   0  0  0  0  0  0  0  0  0  0  0  0
   23.2635    1.3285   33.5486 H   0  0  0  0  0  0  0  0  0  0  0  0
   17.7651    8.4820   34.0053 H   0  0  0  0  0  0  0  0  0  0  0  0
   17.9801   10.2144   34.1683 H   0  0  0  0  0  0  0  0  0  0  0  0
   23.7954   10.1905   30.9060 H   0  0  0  0  0  0  0  0  0  0  0  0
   23.8869   11.9268   30.8333 H   0  0  0  0  0  0  0  0  0  0  0  0
   23.6614   11.0313   28.5195 H   0  0  0  0  0  0  0  0  0  0  0  0
   22.1471   10.2416   28.9497 H   0  0  0  0  0  0  0  0  0  0  0  0
   22.2473   11.9998   28.9353 H   0  0  0  0  0  0  0  0  0  0  0  0
   27.6530    4.6420   31.2744 H   0  0  0  0  0  0  0  0  0  0  0  0
   27.1155    3.9279   31.7391 N   0  0  0  0  0  0  0  0  0  0  0  0
   27.7805    3.1149   32.5792 C   0  0  0  0  0  0  0  0  0  0  0  0
   27.2813    2.2077   33.2372 O   0  0  0  0  0  0  0  0  0  0  0  0
   29.2736    3.3746   32.7104 C   0  0  1  0  0  0  0  0  0  0  0  0
   29.5639    3.3196   33.7597 H   0  0  0  0  0  0  0  0  0  0  0  0
   29.8300    2.6134   32.1643 H   0  0  0  0  0  0  0  0  0  0  0  0
   29.5554    4.3564   32.3308 H   0  0  0  0  0  0  0  0  0  0  0  0
  1  2  1  0
  1  6  2  0
  1 27  1  0
  2  3  2  0
  2 19  1  0
  3  4  1  0
  3  7  1  0
  4  5  2  0
  4 28  1  0
  5  6  1  0
  5 17  1  0
  6 47  1  0
  7  8  1  0
  7 30  1  6
  7 31  1  0
  8  9  1  0
  8 11  2  0
  9 10  1  0
  9 32  1  0
 10 12  1  0
 10 16  2  0
 12 13  2  0
 13 14  1  0
 13 23  1  0
 14 15  2  0
 14 22  1  0
 15 16  1  0
 15 21  1  0
 16 29  1  0
 17 18  1  0
 18 33  1  6
 18 34  1  0
 18 35  1  0
 19 20  1  0
 20 36  1  1
 20 37  1  0
 20 38  1  0
 21 39  1  0
 21 40  1  0
 22 26  3  0
 23 24  1  0
 24 25  1  0
 24 41  1  1
 24 42  1  0
 25 43  1  6
 25 44  1  0
 25 45  1  0
 46 47  1  0
 47 48  1  0
 48 49  2  0
 48 50  1  0
 50 51  1  1
 50 52  1  0
 50 53  1  0
M  END
