18626-1 flip
     RDKit          3D

 38 39  0  0  1  0  0  0  0  0999 V2000
   24.8292    3.4127   32.0326 C   0  0  0  0  0  0  0  0  0  0  0  0
   23.4800    3.5396   31.6984 C   0  0  0  0  0  0  0  0  0  0  0  0
   23.0942    4.3335   30.6111 C   0  0  0  0  0  0  0  0  0  0  0  0
   24.0741    4.9946   29.8613 C   0  0  0  0  0  0  0  0  0  0  0  0
   25.4213    4.8711   30.1992 C   0  0  0  0  0  0  0  0  0  0  0  0
   25.7989    4.0803   31.2833 C   0  0  0  0  0  0  0  0  0  0  0  0
   21.6217    4.4598   30.2308 C   0  0  2  0  0  0  0  0  0  0  0  0
   20.8751    5.4818   31.0939 C   0  0  0  0  0  0  0  0  0  0  0  0
   21.2676    6.7584   30.9668 N   0  0  0  0  0  0  0  0  0  0  0  0
   20.7903    7.9025   31.5735 C   0  0  0  0  0  0  0  0  0  0  0  0
   19.9762    5.0930   31.8339 O   0  0  0  0  0  0  0  0  0  0  0  0
   21.5737    8.9595   31.2996 N   0  0  0  0  0  0  0  0  0  0  0  0
   21.2445   10.1726   31.8237 C   0  0  0  0  0  0  0  0  0  0  0  0
   20.1167   10.3578   32.6303 C   0  0  0  0  0  0  0  0  0  0  0  0
   19.3083    9.2408   32.8897 C   0  0  0  0  0  0  0  0  0  0  0  0
   19.6447    8.0026   32.3601 C   0  0  0  0  0  0  0  0  0  0  0  0
   18.1537    9.2986   33.6696 N   0  0  0  0  0  0  0  0  0  0  0  0
   19.8118   11.6768   33.1723 C   0  0  0  0  0  0  0  0  0  0  0  0
   22.0767   11.2423   31.5373 O   0  0  0  0  0  0  0  0  0  0  0  0
   23.1971   11.0884   30.6665 C   0  0  2  0  0  0  0  0  0  0  0  0
   22.7482   11.1417   29.1995 C   0  0  1  0  0  0  0  0  0  0  0  0
   19.5631   12.7198   33.6070 N   0  0  0  0  0  0  0  0  0  0  0  0
   25.1255    2.7993   32.8714 H   0  0  0  0  0  0  0  0  0  0  0  0
   23.7986    5.6041   29.0123 H   0  0  0  0  0  0  0  0  0  0  0  0
   19.0212    7.1450   32.5526 H   0  0  0  0  0  0  0  0  0  0  0  0
   21.1328    3.4903   30.3388 H   0  0  0  0  0  0  0  0  0  0  0  0
   21.5142    4.7386   29.1825 H   0  0  0  0  0  0  0  0  0  0  0  0
   22.0519    6.9645   30.3782 H   0  0  0  0  0  0  0  0  0  0  0  0
   17.9529   10.1581   34.1621 H   0  0  0  0  0  0  0  0  0  0  0  0
   17.7311    8.4311   33.9617 H   0  0  0  0  0  0  0  0  0  0  0  0
   23.7721   10.1853   30.8827 H   0  0  0  0  0  0  0  0  0  0  0  0
   23.8719   11.9222   30.8622 H   0  0  0  0  0  0  0  0  0  0  0  0
   23.6027   11.0885   28.5256 H   0  0  0  0  0  0  0  0  0  0  0  0
   22.0824   10.3130   28.9590 H   0  0  0  0  0  0  0  0  0  0  0  0
   22.2125   12.0682   28.9916 H   0  0  0  0  0  0  0  0  0  0  0  0
   22.7395    3.0196   32.2897 H   0  0  0  0  0  0  0  0  0  0  0  0
   26.8450    3.9887   31.5364 H   0  0  0  0  0  0  0  0  0  0  0  0
   26.6212    5.6963   29.2772 Cl  0  0  0  0  0  0  0  0  0  0  0  0
  1  2  1  0
  1  6  2  0
  1 23  1  0
  2  3  2  0
  2 36  1  0
  3  4  1  0
  3  7  1  0
  4  5  2  0
  4 24  1  0
  5  6  1  0
  5 38  1  0
  6 37  1  0
  7  8  1  0
  7 26  1  6
  7 27  1  0
  8  9  1  0
  8 11  2  0
  9 10  1  0
  9 28  1  0
 10 12  1  0
 10 16  2  0
 12 13  2  0
 13 14  1  0
 13 19  1  0
 14 15  2  0
 14 18  1  0
 15 16  1  0
 15 17  1  0
 16 25  1  0
 17 29  1  0
 17 30  1  0
 18 22  3  0
 19 20  1  0
 20 21  1  0
 20 31  1  1
 20 32  1  0
 21 33  1  6
 21 34  1  0
 21 35  1  0
M  END
