18639-1
     RDKit          3D

 48 49  0  0  1  0  0  0  0  0999 V2000
   25.3885    4.9769   30.6641 C   0  0  0  0  0  0  0  0  0  0  0  0
   24.0633    5.1984   30.2676 C   0  0  0  0  0  0  0  0  0  0  0  0
   23.0814    4.2735   30.6551 C   0  0  0  0  0  0  0  0  0  0  0  0
   23.4267    3.1807   31.4550 C   0  0  0  0  0  0  0  0  0  0  0  0
   24.7523    2.9648   31.8618 C   0  0  0  0  0  0  0  0  0  0  0  0
   25.7429    3.8659   31.4435 C   0  0  0  0  0  0  0  0  0  0  0  0
   21.6209    4.4615   30.2391 C   0  0  2  0  0  0  0  0  0  0  0  0
   20.8887    5.4769   31.1194 C   0  0  0  0  0  0  0  0  0  0  0  0
   21.2673    6.7536   30.9676 N   0  0  0  0  0  0  0  0  0  0  0  0
   20.8029    7.9034   31.5738 C   0  0  0  0  0  0  0  0  0  0  0  0
   20.0194    5.0833   31.8921 O   0  0  0  0  0  0  0  0  0  0  0  0
   21.5931    8.9582   31.3065 N   0  0  0  0  0  0  0  0  0  0  0  0
   21.2638   10.1721   31.8287 C   0  0  0  0  0  0  0  0  0  0  0  0
   20.1327   10.3605   32.6298 C   0  0  0  0  0  0  0  0  0  0  0  0
   19.3186    9.2464   32.8837 C   0  0  0  0  0  0  0  0  0  0  0  0
   19.6535    8.0079   32.3542 C   0  0  0  0  0  0  0  0  0  0  0  0
   25.1305    1.9169   32.6785 O   0  0  0  0  0  0  0  0  0  0  0  0
   24.1724    0.9504   33.0951 C   0  0  1  0  0  0  0  0  0  0  0  0
   23.6600    6.2865   29.5128 O   0  0  0  0  0  0  0  0  0  0  0  0
   24.5567    7.3785   29.3233 C   0  0  1  0  0  0  0  0  0  0  0  0
   18.1588    9.3079   33.6555 N   0  0  0  0  0  0  0  0  0  0  0  0
   19.8291   11.6804   33.1704 C   0  0  0  0  0  0  0  0  0  0  0  0
   22.0981   11.2404   31.5429 O   0  0  0  0  0  0  0  0  0  0  0  0
   23.2113   11.0879   30.6632 C   0  0  2  0  0  0  0  0  0  0  0  0
   22.7504   11.1260   29.1991 C   0  0  1  0  0  0  0  0  0  0  0  0
   19.5814   12.7240   33.6037 N   0  0  0  0  0  0  0  0  0  0  0  0
   26.1697    5.6612   30.3697 H   0  0  0  0  0  0  0  0  0  0  0  0
   22.6446    2.5063   31.7657 H   0  0  0  0  0  0  0  0  0  0  0  0
   19.0253    7.1520   32.5394 H   0  0  0  0  0  0  0  0  0  0  0  0
   21.0826    3.5142   30.2765 H   0  0  0  0  0  0  0  0  0  0  0  0
   21.5709    4.7953   29.2024 H   0  0  0  0  0  0  0  0  0  0  0  0
   22.0465    6.9308   30.3534 H   0  0  0  0  0  0  0  0  0  0  0  0
   24.6688    0.1988   33.7093 H   0  0  0  0  0  0  0  0  0  0  0  0
   23.3842    1.3997   33.7012 H   0  0  0  0  0  0  0  0  0  0  0  0
   23.7261    0.4344   32.2437 H   0  0  0  0  0  0  0  0  0  0  0  0
   24.0376    8.1832   28.8020 H   0  0  0  0  0  0  0  0  0  0  0  0
   24.9078    7.7811   30.2755 H   0  0  0  0  0  0  0  0  0  0  0  0
   25.4155    7.0938   28.7134 H   0  0  0  0  0  0  0  0  0  0  0  0
   17.7222    8.4433   33.9354 H   0  0  0  0  0  0  0  0  0  0  0  0
   17.9513   10.1699   34.1410 H   0  0  0  0  0  0  0  0  0  0  0  0
   23.7923   10.1898   30.8831 H   0  0  0  0  0  0  0  0  0  0  0  0
   23.8827   11.9272   30.8467 H   0  0  0  0  0  0  0  0  0  0  0  0
   23.5991   11.0745   28.5180 H   0  0  0  0  0  0  0  0  0  0  0  0
   22.0879   10.2914   28.9698 H   0  0  0  0  0  0  0  0  0  0  0  0
   22.2061   12.0471   28.9891 H   0  0  0  0  0  0  0  0  0  0  0  0
   27.6423    2.5444   31.7418 O   0  0  0  0  0  0  0  0  0  0  0  0
   27.1588    3.6692   31.8178 N   0  0  0  0  0  0  0  0  0  0  0  0
   27.8042    4.6675   32.1260 O   0  0  0  0  0  0  0  0  0  0  0  0
  1  2  1  0
  1  6  2  0
  1 27  1  0
  2  3  2  0
  2 19  1  0
  3  4  1  0
  3  7  1  0
  4  5  2  0
  4 28  1  0
  5  6  1  0
  5 17  1  0
  6 47  1  0
  7  8  1  0
  7 30  1  6
  7 31  1  0
  8  9  1  0
  8 11  2  0
  9 10  1  0
  9 32  1  0
 10 12  1  0
 10 16  2  0
 12 13  2  0
 13 14  1  0
 13 23  1  0
 14 15  2  0
 14 22  1  0
 15 16  1  0
 15 21  1  0
 16 29  1  0
 17 18  1  0
 18 33  1  1
 18 34  1  0
 18 35  1  0
 19 20  1  0
 20 36  1  6
 20 37  1  0
 20 38  1  0
 21 39  1  0
 21 40  1  0
 22 26  3  0
 23 24  1  0
 24 25  1  0
 24 41  1  1
 24 42  1  0
 25 43  1  6
 25 44  1  0
 25 45  1  0
 46 47  2  0
 47 48  1  0
M  CHG  2  47   1  48  -1
M  END
