18631-1 flip
     RDKit          3D

 42 43  0  0  1  0  0  0  0  0999 V2000
   24.9240    3.1640   31.7263 C   0  0  0  0  0  0  0  0  0  0  0  0
   23.5619    3.2441   31.3956 C   0  0  0  0  0  0  0  0  0  0  0  0
   23.1077    4.3395   30.6381 C   0  0  0  0  0  0  0  0  0  0  0  0
   24.0136    5.3156   30.2080 C   0  0  0  0  0  0  0  0  0  0  0  0
   25.3630    5.2205   30.5421 C   0  0  0  0  0  0  0  0  0  0  0  0
   25.8179    4.1472   31.3038 C   0  0  0  0  0  0  0  0  0  0  0  0
   21.6317    4.4696   30.2488 C   0  0  2  0  0  0  0  0  0  0  0  0
   20.8758    5.4848   31.1127 C   0  0  0  0  0  0  0  0  0  0  0  0
   21.2653    6.7602   30.9791 N   0  0  0  0  0  0  0  0  0  0  0  0
   20.7962    7.9110   31.5794 C   0  0  0  0  0  0  0  0  0  0  0  0
   19.9757    5.0950   31.8523 O   0  0  0  0  0  0  0  0  0  0  0  0
   21.5854    8.9675   31.3141 N   0  0  0  0  0  0  0  0  0  0  0  0
   21.2534   10.1810   31.8340 C   0  0  0  0  0  0  0  0  0  0  0  0
   20.1208   10.3680   32.6332 C   0  0  0  0  0  0  0  0  0  0  0  0
   19.3075    9.2531   32.8855 C   0  0  0  0  0  0  0  0  0  0  0  0
   19.6448    8.0150   32.3568 C   0  0  0  0  0  0  0  0  0  0  0  0
   22.6283    2.2930   31.7684 O   0  0  0  0  0  0  0  0  0  0  0  0
   23.0739    1.0483   32.2975 C   0  0  2  0  0  0  0  0  0  0  0  0
   18.1469    9.3134   33.6563 N   0  0  0  0  0  0  0  0  0  0  0  0
   19.8159   11.6874   33.1741 C   0  0  0  0  0  0  0  0  0  0  0  0
   22.0870   11.2503   31.5493 O   0  0  0  0  0  0  0  0  0  0  0  0
   23.2015   11.0975   30.6712 C   0  0  2  0  0  0  0  0  0  0  0  0
   22.7436   11.1345   29.2062 C   0  0  1  0  0  0  0  0  0  0  0  0
   19.5675   12.7308   33.6082 N   0  0  0  0  0  0  0  0  0  0  0  0
   25.3080    2.3445   32.3120 H   0  0  0  0  0  0  0  0  0  0  0  0
   23.6736    6.1498   29.6100 H   0  0  0  0  0  0  0  0  0  0  0  0
   19.0184    7.1582   32.5418 H   0  0  0  0  0  0  0  0  0  0  0  0
   21.1283    3.5051   30.3212 H   0  0  0  0  0  0  0  0  0  0  0  0
   21.5521    4.7746   29.2052 H   0  0  0  0  0  0  0  0  0  0  0  0
   22.0626    6.9269   30.3836 H   0  0  0  0  0  0  0  0  0  0  0  0
   23.5521    1.1727   33.2699 H   0  0  0  0  0  0  0  0  0  0  0  0
   23.7642    0.5474   31.6164 H   0  0  0  0  0  0  0  0  0  0  0  0
   22.2161    0.3901   32.4350 H   0  0  0  0  0  0  0  0  0  0  0  0
   17.9398   10.1743   34.1435 H   0  0  0  0  0  0  0  0  0  0  0  0
   17.7108    8.4478   33.9338 H   0  0  0  0  0  0  0  0  0  0  0  0
   23.7824   10.1999   30.8930 H   0  0  0  0  0  0  0  0  0  0  0  0
   23.8725   11.9371   30.8549 H   0  0  0  0  0  0  0  0  0  0  0  0
   23.5937   11.0824   28.5269 H   0  0  0  0  0  0  0  0  0  0  0  0
   22.0825   10.2986   28.9768 H   0  0  0  0  0  0  0  0  0  0  0  0
   22.1987   12.0546   28.9941 H   0  0  0  0  0  0  0  0  0  0  0  0
   26.8644    4.0741   31.5635 H   0  0  0  0  0  0  0  0  0  0  0  0
   26.0564    5.9791   30.2076 H   0  0  0  0  0  0  0  0  0  0  0  0
  1  2  1  0
  1  6  2  0
  1 25  1  0
  2  3  2  0
  2 17  1  0
  3  4  1  0
  3  7  1  0
  4  5  2  0
  4 26  1  0
  5  6  1  0
  5 42  1  0
  6 41  1  0
  7  8  1  0
  7 28  1  6
  7 29  1  0
  8  9  1  0
  8 11  2  0
  9 10  1  0
  9 30  1  0
 10 12  1  0
 10 16  2  0
 12 13  2  0
 13 14  1  0
 13 21  1  0
 14 15  2  0
 14 20  1  0
 15 16  1  0
 15 19  1  0
 16 27  1  0
 17 18  1  0
 18 31  1  1
 18 32  1  0
 18 33  1  0
 19 34  1  0
 19 35  1  0
 20 24  3  0
 21 22  1  0
 22 23  1  0
 22 36  1  1
 22 37  1  0
 23 38  1  6
 23 39  1  0
 23 40  1  0
M  END
