18652-1 flip
     RDKit          3D

 55 56  0  0  1  0  0  0  0  0999 V2000
   24.9416    3.0706   31.5610 C   0  0  0  0  0  0  0  0  0  0  0  0
   23.5731    3.1679   31.2706 C   0  0  0  0  0  0  0  0  0  0  0  0
   23.1092    4.2881   30.5624 C   0  0  0  0  0  0  0  0  0  0  0  0
   24.0130    5.2602   30.1244 C   0  0  0  0  0  0  0  0  0  0  0  0
   25.3835    5.1595   30.4055 C   0  0  0  0  0  0  0  0  0  0  0  0
   25.8406    4.0603   31.1413 C   0  0  0  0  0  0  0  0  0  0  0  0
   21.6220    4.4572   30.2444 C   0  0  2  0  0  0  0  0  0  0  0  0
   20.9343    5.4730   31.1582 C   0  0  0  0  0  0  0  0  0  0  0  0
   21.2935    6.7513   30.9753 N   0  0  0  0  0  0  0  0  0  0  0  0
   20.8337    7.9059   31.5769 C   0  0  0  0  0  0  0  0  0  0  0  0
   20.1086    5.0808   31.9777 O   0  0  0  0  0  0  0  0  0  0  0  0
   21.5917    8.9703   31.2564 N   0  0  0  0  0  0  0  0  0  0  0  0
   21.2501   10.1913   31.7551 C   0  0  0  0  0  0  0  0  0  0  0  0
   20.1418   10.3763   32.5885 C   0  0  0  0  0  0  0  0  0  0  0  0
   19.3639    9.2516   32.9025 C   0  0  0  0  0  0  0  0  0  0  0  0
   19.7104    8.0067   32.3951 C   0  0  0  0  0  0  0  0  0  0  0  0
   26.3096    6.0989   29.9995 O   0  0  0  0  0  0  0  0  0  0  0  0
   25.9222    7.1627   29.1387 C   0  0  1  0  0  0  0  0  0  0  0  0
   22.6399    2.2167   31.6472 O   0  0  0  0  0  0  0  0  0  0  0  0
   23.0784    0.9314   32.0788 C   0  0  1  0  0  0  0  0  0  0  0  0
   18.2279    9.3094   33.7096 N   0  0  0  0  0  0  0  0  0  0  0  0
   19.8242   11.7057   33.0980 C   0  0  0  0  0  0  0  0  0  0  0  0
   22.0451   11.2716   31.4088 O   0  0  0  0  0  0  0  0  0  0  0  0
   23.1311   11.1273   30.4966 C   0  0  2  0  0  0  0  0  0  0  0  0
   24.0316   12.3460   30.7176 C   0  0  1  0  0  0  0  0  0  0  0  0
   19.5668   12.7567   33.5061 N   0  0  0  0  0  0  0  0  0  0  0  0
   25.3021    2.2266   32.1216 H   0  0  0  0  0  0  0  0  0  0  0  0
   23.6344    6.1004   29.5648 H   0  0  0  0  0  0  0  0  0  0  0  0
   19.1089    7.1431   32.6245 H   0  0  0  0  0  0  0  0  0  0  0  0
   21.0999    3.5034   30.3262 H   0  0  0  0  0  0  0  0  0  0  0  0
   21.4991    4.7785   29.2101 H   0  0  0  0  0  0  0  0  0  0  0  0
   22.0392    6.9237   30.3194 H   0  0  0  0  0  0  0  0  0  0  0  0
   26.8018    7.7573   28.8909 H   0  0  0  0  0  0  0  0  0  0  0  0
   25.5041    6.7899   28.2024 H   0  0  0  0  0  0  0  0  0  0  0  0
   25.2030    7.8271   29.6196 H   0  0  0  0  0  0  0  0  0  0  0  0
   22.2114    0.2837   32.2115 H   0  0  0  0  0  0  0  0  0  0  0  0
   23.7275    0.4585   31.3395 H   0  0  0  0  0  0  0  0  0  0  0  0
   23.5968    0.9831   33.0371 H   0  0  0  0  0  0  0  0  0  0  0  0
   17.8125    8.4454   34.0220 H   0  0  0  0  0  0  0  0  0  0  0  0
   18.0109   10.1808   34.1741 H   0  0  0  0  0  0  0  0  0  0  0  0
   23.7173   10.2318   30.7177 H   0  0  0  0  0  0  0  0  0  0  0  0
   23.4887   13.2740   30.5349 H   0  0  0  0  0  0  0  0  0  0  0  0
   24.3950   12.3772   31.7448 H   0  0  0  0  0  0  0  0  0  0  0  0
   24.8984   12.3281   30.0579 H   0  0  0  0  0  0  0  0  0  0  0  0
   27.5919    3.9576   31.5282 S   0  0  2  0  0  0  0  0  0  0  0  0
   27.9039    5.0672   32.4306 O   0  0  0  0  0  0  0  0  0  0  0  0
   28.3087    3.7751   30.2650 O   0  0  0  0  0  0  0  0  0  0  0  0
   27.8486    2.3965   32.5087 C   0  0  1  0  0  0  0  0  0  0  0  0
   27.2685    2.4703   33.4235 H   0  0  0  0  0  0  0  0  0  0  0  0
   27.5672    1.5541   31.8846 H   0  0  0  0  0  0  0  0  0  0  0  0
   28.9106    2.3582   32.7378 H   0  0  0  0  0  0  0  0  0  0  0  0
   22.6026   11.0842   29.0536 C   0  0  1  0  0  0  0  0  0  0  0  0
   21.9746   10.2089   28.8869 H   0  0  0  0  0  0  0  0  0  0  0  0
   21.9993   11.9649   28.8318 H   0  0  0  0  0  0  0  0  0  0  0  0
   23.4181   11.0453   28.3324 H   0  0  0  0  0  0  0  0  0  0  0  0
  1  2  1  0
  1  6  2  0
  1 27  1  0
  2  3  2  0
  2 19  1  0
  3  4  1  0
  3  7  1  0
  4  5  2  0
  4 28  1  0
  5  6  1  0
  5 17  1  0
 45  6  1  6
  7  8  1  0
  7 30  1  6
  7 31  1  0
  8  9  1  0
  8 11  2  0
  9 10  1  0
  9 32  1  0
 10 12  1  0
 10 16  2  0
 12 13  2  0
 13 14  1  0
 13 23  1  0
 14 15  2  0
 14 22  1  0
 15 16  1  0
 15 21  1  0
 16 29  1  0
 17 18  1  0
 18 33  1  6
 18 34  1  0
 18 35  1  0
 19 20  1  0
 20 36  1  1
 20 37  1  0
 20 38  1  0
 21 39  1  0
 21 40  1  0
 22 26  3  0
 23 24  1  0
 24 25  1  0
 24 41  1  1
 24 52  1  0
 25 42  1  6
 25 43  1  0
 25 44  1  0
 45 46  2  0
 45 47  2  0
 45 48  1  0
 48 49  1  1
 48 50  1  0
 48 51  1  0
 52 53  1  1
 52 54  1  0
 52 55  1  0
M  END
