18628-1_flip
     RDKit          3D

 41 42  0  0  1  0  0  0  0  0999 V2000
   25.3872    4.4159   30.7251 C   0  0  0  0  0  0  0  0  0  0  0  0
   24.1528    4.7484   30.1556 C   0  0  0  0  0  0  0  0  0  0  0  0
   22.9784    4.1363   30.6392 C   0  0  0  0  0  0  0  0  0  0  0  0
   23.0702    3.2091   31.6850 C   0  0  0  0  0  0  0  0  0  0  0  0
   24.3052    2.8838   32.2421 C   0  0  0  0  0  0  0  0  0  0  0  0
   25.4644    3.4876   31.7619 C   0  0  0  0  0  0  0  0  0  0  0  0
   21.5908    4.4590   30.0779 C   0  0  2  0  0  0  0  0  0  0  0  0
   20.8239    5.4641   30.9419 C   0  0  0  0  0  0  0  0  0  0  0  0
   21.3307    6.7045   30.9853 N   0  0  0  0  0  0  0  0  0  0  0  0
   20.8646    7.8433   31.6105 C   0  0  0  0  0  0  0  0  0  0  0  0
   19.8022    5.1012   31.5181 O   0  0  0  0  0  0  0  0  0  0  0  0
   21.6456    8.9018   31.3335 N   0  0  0  0  0  0  0  0  0  0  0  0
   21.3192   10.1139   31.8611 C   0  0  0  0  0  0  0  0  0  0  0  0
   20.2027   10.2939   32.6848 C   0  0  0  0  0  0  0  0  0  0  0  0
   19.4039    9.1729   32.9597 C   0  0  0  0  0  0  0  0  0  0  0  0
   19.7348    7.9375   32.4202 C   0  0  0  0  0  0  0  0  0  0  0  0
   18.2664    9.2246   33.7649 N   0  0  0  0  0  0  0  0  0  0  0  0
   19.9001   11.6130   33.2279 C   0  0  0  0  0  0  0  0  0  0  0  0
   22.1420   11.1878   31.5595 O   0  0  0  0  0  0  0  0  0  0  0  0
   23.2500   11.0375   30.6719 C   0  0  2  0  0  0  0  0  0  0  0  0
   22.7810   11.0820   29.2115 C   0  0  1  0  0  0  0  0  0  0  0  0
   19.6536   12.6559   33.6632 N   0  0  0  0  0  0  0  0  0  0  0  0
   26.2974    4.8743   30.3649 H   0  0  0  0  0  0  0  0  0  0  0  0
   21.7976    2.5397   32.2362 C   0  0  1  0  0  0  0  0  0  0  0  0
   19.1222    7.0761   32.6263 H   0  0  0  0  0  0  0  0  0  0  0  0
   21.0066    3.5395   30.0225 H   0  0  0  0  0  0  0  0  0  0  0  0
   21.6372    4.8350   29.0578 H   0  0  0  0  0  0  0  0  0  0  0  0
   22.1944    6.8776   30.5084 H   0  0  0  0  0  0  0  0  0  0  0  0
   17.8238    8.3600   34.0357 H   0  0  0  0  0  0  0  0  0  0  0  0
   18.0582   10.0866   34.2508 H   0  0  0  0  0  0  0  0  0  0  0  0
   23.8320   10.1384   30.8850 H   0  0  0  0  0  0  0  0  0  0  0  0
   23.9250   11.8754   30.8501 H   0  0  0  0  0  0  0  0  0  0  0  0
   23.6291   11.0392   28.5284 H   0  0  0  0  0  0  0  0  0  0  0  0
   22.1243   10.2429   28.9821 H   0  0  0  0  0  0  0  0  0  0  0  0
   22.2310   12.0013   29.0094 H   0  0  0  0  0  0  0  0  0  0  0  0
   26.4230    3.2376   32.1931 H   0  0  0  0  0  0  0  0  0  0  0  0
   24.3621    2.1650   33.0469 H   0  0  0  0  0  0  0  0  0  0  0  0
   22.0660    1.8541   33.0400 H   0  0  0  0  0  0  0  0  0  0  0  0
   21.1222    3.3037   32.6213 H   0  0  0  0  0  0  0  0  0  0  0  0
   21.3024    1.9868   31.4380 H   0  0  0  0  0  0  0  0  0  0  0  0
   24.1052    5.4687   29.3522 H   0  0  0  0  0  0  0  0  0  0  0  0
  1  2  1  0
  1  6  2  0
  1 23  1  0
  2  3  2  0
  2 41  1  0
  3  4  1  0
  3  7  1  0
  4  5  2  0
  4 24  1  0
  5  6  1  0
  5 37  1  0
  6 36  1  0
  7  8  1  0
  7 26  1  6
  7 27  1  0
  8  9  1  0
  8 11  2  0
  9 10  1  0
  9 28  1  0
 10 12  1  0
 10 16  2  0
 12 13  2  0
 13 14  1  0
 13 19  1  0
 14 15  2  0
 14 18  1  0
 15 16  1  0
 15 17  1  0
 16 25  1  0
 17 29  1  0
 17 30  1  0
 18 22  3  0
 19 20  1  0
 20 21  1  0
 20 31  1  1
 20 32  1  0
 21 33  1  6
 21 34  1  0
 21 35  1  0
 24 38  1  1
 24 39  1  0
 24 40  1  0
M  END
