18632-1
     RDKit          3D

 42 43  0  0  1  0  0  0  0  0999 V2000
   25.3119    5.3068   29.7088 C   0  0  0  0  0  0  0  0  0  0  0  0
   23.9296    5.2636   29.5360 C   0  0  0  0  0  0  0  0  0  0  0  0
   23.1381    4.4932   30.3939 C   0  0  0  0  0  0  0  0  0  0  0  0
   23.7446    3.7700   31.4267 C   0  0  0  0  0  0  0  0  0  0  0  0
   25.1371    3.8018   31.6032 C   0  0  0  0  0  0  0  0  0  0  0  0
   25.9068    4.5770   30.7372 C   0  0  0  0  0  0  0  0  0  0  0  0
   21.6222    4.4611   30.2211 C   0  0  2  0  0  0  0  0  0  0  0  0
   20.8913    5.4810   31.1021 C   0  0  0  0  0  0  0  0  0  0  0  0
   21.2908    6.7571   30.9902 N   0  0  0  0  0  0  0  0  0  0  0  0
   20.8082    7.9011   31.5932 C   0  0  0  0  0  0  0  0  0  0  0  0
   19.9890    5.0907   31.8377 O   0  0  0  0  0  0  0  0  0  0  0  0
   21.5864    8.9609   31.3168 N   0  0  0  0  0  0  0  0  0  0  0  0
   21.2506   10.1749   31.8337 C   0  0  0  0  0  0  0  0  0  0  0  0
   20.1196   10.3584   32.6362 C   0  0  0  0  0  0  0  0  0  0  0  0
   19.3160    9.2387   32.8987 C   0  0  0  0  0  0  0  0  0  0  0  0
   19.6597    7.9994   32.3758 C   0  0  0  0  0  0  0  0  0  0  0  0
   25.8210    3.1142   32.5840 O   0  0  0  0  0  0  0  0  0  0  0  0
   25.0972    2.2910   33.4917 C   0  0  1  0  0  0  0  0  0  0  0  0
   18.1587    9.2949   33.6747 N   0  0  0  0  0  0  0  0  0  0  0  0
   19.8067   11.6783   33.1713 C   0  0  0  0  0  0  0  0  0  0  0  0
   22.0783   11.2469   31.5433 O   0  0  0  0  0  0  0  0  0  0  0  0
   23.2021   11.0921   30.6764 C   0  0  2  0  0  0  0  0  0  0  0  0
   22.7572   11.1370   29.2079 C   0  0  1  0  0  0  0  0  0  0  0  0
   19.5512   12.7218   33.6010 N   0  0  0  0  0  0  0  0  0  0  0  0
   25.9247    5.9019   29.0477 H   0  0  0  0  0  0  0  0  0  0  0  0
   23.1224    3.1875   32.0875 H   0  0  0  0  0  0  0  0  0  0  0  0
   19.0397    7.1398   32.5700 H   0  0  0  0  0  0  0  0  0  0  0  0
   21.2510    3.4639   30.4609 H   0  0  0  0  0  0  0  0  0  0  0  0
   21.3498    4.6459   29.1821 H   0  0  0  0  0  0  0  0  0  0  0  0
   22.0855    6.9585   30.4126 H   0  0  0  0  0  0  0  0  0  0  0  0
   24.3919    2.8741   34.0861 H   0  0  0  0  0  0  0  0  0  0  0  0
   24.5601    1.4957   32.9723 H   0  0  0  0  0  0  0  0  0  0  0  0
   25.7959    1.8177   34.1819 H   0  0  0  0  0  0  0  0  0  0  0  0
   17.7301    8.4284   33.9605 H   0  0  0  0  0  0  0  0  0  0  0  0
   17.9471   10.1578   34.1567 H   0  0  0  0  0  0  0  0  0  0  0  0
   23.7795   10.1917   30.8982 H   0  0  0  0  0  0  0  0  0  0  0  0
   23.8738   11.9288   30.8701 H   0  0  0  0  0  0  0  0  0  0  0  0
   22.0947   10.3050   28.9698 H   0  0  0  0  0  0  0  0  0  0  0  0
   22.2197   12.0610   28.9935 H   0  0  0  0  0  0  0  0  0  0  0  0
   23.6140   11.0821   28.5370 H   0  0  0  0  0  0  0  0  0  0  0  0
   26.9782    4.6066   30.8713 H   0  0  0  0  0  0  0  0  0  0  0  0
   23.4812    5.8295   28.7320 H   0  0  0  0  0  0  0  0  0  0  0  0
  1  2  1  0
  1  6  2  0
  1 25  1  0
  2  3  2  0
  2 42  1  0
  3  4  1  0
  3  7  1  0
  4  5  2  0
  4 26  1  0
  5  6  1  0
  5 17  1  0
  6 41  1  0
  7  8  1  0
  7 28  1  1
  7 29  1  0
  8  9  1  0
  8 11  2  0
  9 10  1  0
  9 30  1  0
 10 12  1  0
 10 16  2  0
 12 13  2  0
 13 14  1  0
 13 21  1  0
 14 15  2  0
 14 20  1  0
 15 16  1  0
 15 19  1  0
 16 27  1  0
 17 18  1  0
 18 31  1  1
 18 32  1  0
 18 33  1  0
 19 34  1  0
 19 35  1  0
 20 24  3  0
 21 22  1  0
 22 23  1  0
 22 36  1  1
 22 37  1  0
 23 38  1  6
 23 39  1  0
 23 40  1  0
M  END
