18629-1 flip
     RDKit          3D

 41 42  0  0  1  0  0  0  0  0999 V2000
   24.8792    3.4544   31.9528 C   0  0  0  0  0  0  0  0  0  0  0  0
   23.5225    3.5508   31.6431 C   0  0  0  0  0  0  0  0  0  0  0  0
   23.0988    4.3595   30.5825 C   0  0  0  0  0  0  0  0  0  0  0  0
   24.0466    5.0659   29.8344 C   0  0  0  0  0  0  0  0  0  0  0  0
   25.4056    4.9751   30.1456 C   0  0  0  0  0  0  0  0  0  0  0  0
   25.8189    4.1661   31.2073 C   0  0  0  0  0  0  0  0  0  0  0  0
   21.6174    4.4557   30.2293 C   0  0  2  0  0  0  0  0  0  0  0  0
   20.8650    5.4790   31.0865 C   0  0  0  0  0  0  0  0  0  0  0  0
   21.2839    6.7501   30.9907 N   0  0  0  0  0  0  0  0  0  0  0  0
   20.8020    7.8975   31.5885 C   0  0  0  0  0  0  0  0  0  0  0  0
   19.9324    5.0975   31.7885 O   0  0  0  0  0  0  0  0  0  0  0  0
   21.5854    8.9548   31.3149 N   0  0  0  0  0  0  0  0  0  0  0  0
   21.2518   10.1700   31.8306 C   0  0  0  0  0  0  0  0  0  0  0  0
   20.1202   10.3576   32.6311 C   0  0  0  0  0  0  0  0  0  0  0  0
   19.3117    9.2409   32.8911 C   0  0  0  0  0  0  0  0  0  0  0  0
   19.6519    8.0009   32.3685 C   0  0  0  0  0  0  0  0  0  0  0  0
   18.1536    9.3006   33.6659 N   0  0  0  0  0  0  0  0  0  0  0  0
   19.8115   11.6784   33.1667 C   0  0  0  0  0  0  0  0  0  0  0  0
   22.0834   11.2397   31.5421 O   0  0  0  0  0  0  0  0  0  0  0  0
   23.2035   11.0838   30.6709 C   0  0  2  0  0  0  0  0  0  0  0  0
   22.7536   11.1336   29.2041 C   0  0  1  0  0  0  0  0  0  0  0  0
   19.5596   12.7227   33.5965 N   0  0  0  0  0  0  0  0  0  0  0  0
   25.2040    2.8299   32.7723 H   0  0  0  0  0  0  0  0  0  0  0  0
   23.7260    5.6859   29.0086 H   0  0  0  0  0  0  0  0  0  0  0  0
   19.0284    7.1439   32.5626 H   0  0  0  0  0  0  0  0  0  0  0  0
   21.1500    3.4789   30.3609 H   0  0  0  0  0  0  0  0  0  0  0  0
   21.4872    4.7162   29.1791 H   0  0  0  0  0  0  0  0  0  0  0  0
   22.0953    6.9427   30.4345 H   0  0  0  0  0  0  0  0  0  0  0  0
   17.7230    8.4345   33.9501 H   0  0  0  0  0  0  0  0  0  0  0  0
   17.9468   10.1624   34.1519 H   0  0  0  0  0  0  0  0  0  0  0  0
   23.7791   10.1813   30.8886 H   0  0  0  0  0  0  0  0  0  0  0  0
   23.8781   11.9183   30.8642 H   0  0  0  0  0  0  0  0  0  0  0  0
   23.6077   11.0793   28.5299 H   0  0  0  0  0  0  0  0  0  0  0  0
   22.0887   10.3033   28.9661 H   0  0  0  0  0  0  0  0  0  0  0  0
   22.2167   12.0591   28.9943 H   0  0  0  0  0  0  0  0  0  0  0  0
   26.8673    4.0869   31.4577 H   0  0  0  0  0  0  0  0  0  0  0  0
   22.8065    2.9974   32.2330 H   0  0  0  0  0  0  0  0  0  0  0  0
   26.4191    5.7575   29.3327 C   0  0  1  0  0  0  0  0  0  0  0  0
   27.4437    5.5182   29.6194 H   0  0  0  0  0  0  0  0  0  0  0  0
   26.3090    5.5361   28.2706 H   0  0  0  0  0  0  0  0  0  0  0  0
   26.2711    6.8282   29.4765 H   0  0  0  0  0  0  0  0  0  0  0  0
  1  2  1  0
  1  6  2  0
  1 23  1  0
  2  3  2  0
  2 37  1  0
  3  4  1  0
  3  7  1  0
  4  5  2  0
  4 24  1  0
  5  6  1  0
  5 38  1  0
  6 36  1  0
  7  8  1  0
  7 26  1  6
  7 27  1  0
  8  9  1  0
  8 11  2  0
  9 10  1  0
  9 28  1  0
 10 12  1  0
 10 16  2  0
 12 13  2  0
 13 14  1  0
 13 19  1  0
 14 15  2  0
 14 18  1  0
 15 16  1  0
 15 17  1  0
 16 25  1  0
 17 29  1  0
 17 30  1  0
 18 22  3  0
 19 20  1  0
 20 21  1  0
 20 31  1  1
 20 32  1  0
 21 33  1  6
 21 34  1  0
 21 35  1  0
 38 39  1  1
 38 40  1  0
 38 41  1  0
M  END
