18658-1
     RDKit          3D

 47 48  0  0  1  0  0  0  0  0999 V2000
   25.3968    4.9764   30.7658 C   0  0  0  0  0  0  0  0  0  0  0  0
   24.0839    5.1964   30.3221 C   0  0  0  0  0  0  0  0  0  0  0  0
   23.0840    4.2778   30.6867 C   0  0  0  0  0  0  0  0  0  0  0  0
   23.4006    3.1800   31.4960 C   0  0  0  0  0  0  0  0  0  0  0  0
   24.7144    2.9663   31.9368 C   0  0  0  0  0  0  0  0  0  0  0  0
   25.7019    3.8722   31.5603 C   0  0  0  0  0  0  0  0  0  0  0  0
   21.6366    4.4735   30.2290 C   0  0  2  0  0  0  0  0  0  0  0  0
   20.8826    5.4969   31.0822 C   0  0  0  0  0  0  0  0  0  0  0  0
   21.2994    6.7662   30.9683 N   0  0  0  0  0  0  0  0  0  0  0  0
   20.8290    7.9211   31.5628 C   0  0  0  0  0  0  0  0  0  0  0  0
   19.9598    5.1168   31.7981 O   0  0  0  0  0  0  0  0  0  0  0  0
   21.6367    8.9701   31.3231 N   0  0  0  0  0  0  0  0  0  0  0  0
   21.3058   10.1846   31.8449 C   0  0  0  0  0  0  0  0  0  0  0  0
   20.1533   10.3804   32.6130 C   0  0  0  0  0  0  0  0  0  0  0  0
   19.3228    9.2728   32.8391 C   0  0  0  0  0  0  0  0  0  0  0  0
   19.6595    8.0342   32.3120 C   0  0  0  0  0  0  0  0  0  0  0  0
   25.1171    1.9115   32.7292 O   0  0  0  0  0  0  0  0  0  0  0  0
   24.1550    0.9561   33.1618 C   0  0  1  0  0  0  0  0  0  0  0  0
   23.7067    6.2799   29.5467 O   0  0  0  0  0  0  0  0  0  0  0  0
   24.6574    7.3025   29.2662 C   0  0  1  0  0  0  0  0  0  0  0  0
   18.1467    9.3394   33.5856 N   0  0  0  0  0  0  0  0  0  0  0  0
   19.8480   11.6982   33.1575 C   0  0  0  0  0  0  0  0  0  0  0  0
   22.1687   11.2404   31.6030 O   0  0  0  0  0  0  0  0  0  0  0  0
   23.3443   11.0621   30.8027 C   0  0  2  0  0  0  0  0  0  0  0  0
   23.0361   11.0010   29.2902 C   0  0  1  0  0  0  0  0  0  0  0  0
   19.5970   12.7391   33.5958 N   0  0  0  0  0  0  0  0  0  0  0  0
   26.1968    5.6511   30.5081 H   0  0  0  0  0  0  0  0  0  0  0  0
   22.6142    2.4986   31.7794 H   0  0  0  0  0  0  0  0  0  0  0  0
   19.0181    7.1846   32.4786 H   0  0  0  0  0  0  0  0  0  0  0  0
   21.0929    3.5288   30.2536 H   0  0  0  0  0  0  0  0  0  0  0  0
   21.6195    4.8042   29.1904 H   0  0  0  0  0  0  0  0  0  0  0  0
   22.1174    6.9244   30.4002 H   0  0  0  0  0  0  0  0  0  0  0  0
   23.6951    0.4401   32.3177 H   0  0  0  0  0  0  0  0  0  0  0  0
   24.6487    0.2034   33.7767 H   0  0  0  0  0  0  0  0  0  0  0  0
   23.3759    1.4179   33.7703 H   0  0  0  0  0  0  0  0  0  0  0  0
   24.1770    8.0874   28.6826 H   0  0  0  0  0  0  0  0  0  0  0  0
   25.0355    7.7598   30.1823 H   0  0  0  0  0  0  0  0  0  0  0  0
   25.4950    6.9233   28.6787 H   0  0  0  0  0  0  0  0  0  0  0  0
   17.7221    8.4738   33.8799 H   0  0  0  0  0  0  0  0  0  0  0  0
   17.9510   10.1988   34.0808 H   0  0  0  0  0  0  0  0  0  0  0  0
   23.8894   10.1712   31.1190 H   0  0  0  0  0  0  0  0  0  0  0  0
   24.0165   11.8977   30.9994 H   0  0  0  0  0  0  0  0  0  0  0  0
   22.6649   12.2749   28.7896 O   0  0  0  0  0  0  0  0  0  0  0  0
   23.9244   10.6700   28.7508 H   0  0  0  0  0  0  0  0  0  0  0  0
   22.2539   10.2711   29.0789 H   0  0  0  0  0  0  0  0  0  0  0  0
   26.7153    3.7127   31.8975 H   0  0  0  0  0  0  0  0  0  0  0  0
   22.2578   12.1783   27.9240 H   0  0  0  0  0  0  0  0  0  0  0  0
  1  2  1  0
  1  6  2  0
  1 27  1  0
  2  3  2  0
  2 19  1  0
  3  4  1  0
  3  7  1  0
  4  5  2  0
  4 28  1  0
  5  6  1  0
  5 17  1  0
  6 46  1  0
  7  8  1  0
  7 30  1  6
  7 31  1  0
  8  9  1  0
  8 11  2  0
  9 10  1  0
  9 32  1  0
 10 12  1  0
 10 16  2  0
 12 13  2  0
 13 14  1  0
 13 23  1  0
 14 15  2  0
 14 22  1  0
 15 16  1  0
 15 21  1  0
 16 29  1  0
 17 18  1  0
 18 33  1  6
 18 34  1  0
 18 35  1  0
 19 20  1  0
 20 36  1  6
 20 37  1  0
 20 38  1  0
 21 39  1  0
 21 40  1  0
 22 26  3  0
 23 24  1  0
 24 25  1  0
 24 41  1  1
 24 42  1  0
 25 43  1  0
 25 44  1  6
 25 45  1  0
 43 47  1  0
M  END
