18660-1
     RDKit          3D

 52 53  0  0  1  0  0  0  0  0999 V2000
   25.3833    5.0675   30.6884 C   0  0  0  0  0  0  0  0  0  0  0  0
   24.0548    5.2493   30.2761 C   0  0  0  0  0  0  0  0  0  0  0  0
   23.0903    4.3007   30.6600 C   0  0  0  0  0  0  0  0  0  0  0  0
   23.4580    3.2105   31.4578 C   0  0  0  0  0  0  0  0  0  0  0  0
   24.7872    3.0351   31.8690 C   0  0  0  0  0  0  0  0  0  0  0  0
   25.7386    3.9709   31.4728 C   0  0  0  0  0  0  0  0  0  0  0  0
   21.6263    4.4577   30.2402 C   0  0  2  0  0  0  0  0  0  0  0  0
   20.8722    5.4694   31.1075 C   0  0  0  0  0  0  0  0  0  0  0  0
   21.2633    6.7449   30.9787 N   0  0  0  0  0  0  0  0  0  0  0  0
   20.8058    7.8929   31.5925 C   0  0  0  0  0  0  0  0  0  0  0  0
   19.9736    5.0768   31.8474 O   0  0  0  0  0  0  0  0  0  0  0  0
   21.5742    8.9551   31.2897 N   0  0  0  0  0  0  0  0  0  0  0  0
   21.2513   10.1676   31.8155 C   0  0  0  0  0  0  0  0  0  0  0  0
   20.1533   10.3488   32.6616 C   0  0  0  0  0  0  0  0  0  0  0  0
   19.3621    9.2281   32.9559 C   0  0  0  0  0  0  0  0  0  0  0  0
   19.6871    7.9909   32.4173 C   0  0  0  0  0  0  0  0  0  0  0  0
   25.2387    1.9917   32.6504 O   0  0  0  0  0  0  0  0  0  0  0  0
   24.3149    1.0074   33.1018 C   0  0  2  0  0  0  0  0  0  0  0  0
   23.6287    6.3239   29.5145 O   0  0  0  0  0  0  0  0  0  0  0  0
   24.5230    7.4045   29.2658 C   0  0  1  0  0  0  0  0  0  0  0  0
   18.2360    9.2831   33.7754 N   0  0  0  0  0  0  0  0  0  0  0  0
   19.8587   11.6717   33.1981 C   0  0  0  0  0  0  0  0  0  0  0  0
   22.0552   11.2444   31.4767 O   0  0  0  0  0  0  0  0  0  0  0  0
   23.1041   11.0669   30.5326 C   0  0  2  0  0  0  0  0  0  0  0  0
   23.7705   12.4212   30.2902 C   0  0  1  0  0  0  0  0  0  0  0  0
   19.6238   12.7212   33.6242 N   0  0  0  0  0  0  0  0  0  0  0  0
   26.1567    5.7660   30.4126 H   0  0  0  0  0  0  0  0  0  0  0  0
   22.6989    2.5056   31.7568 H   0  0  0  0  0  0  0  0  0  0  0  0
   19.0793    7.1291   32.6371 H   0  0  0  0  0  0  0  0  0  0  0  0
   21.1055    3.5009   30.2851 H   0  0  0  0  0  0  0  0  0  0  0  0
   21.5750    4.7808   29.2003 H   0  0  0  0  0  0  0  0  0  0  0  0
   22.0547    6.9154   30.3769 H   0  0  0  0  0  0  0  0  0  0  0  0
   23.5351    1.4448   33.7273 H   0  0  0  0  0  0  0  0  0  0  0  0
   24.8443    0.2702   33.7054 H   0  0  0  0  0  0  0  0  0  0  0  0
   23.8532    0.4776   32.2671 H   0  0  0  0  0  0  0  0  0  0  0  0
   24.8869    7.8453   30.1956 H   0  0  0  0  0  0  0  0  0  0  0  0
   25.3727    7.0913   28.6574 H   0  0  0  0  0  0  0  0  0  0  0  0
   23.9974    8.1869   28.7179 H   0  0  0  0  0  0  0  0  0  0  0  0
   17.6753    8.4537   33.8959 H   0  0  0  0  0  0  0  0  0  0  0  0
   17.9351   10.1759   34.1408 H   0  0  0  0  0  0  0  0  0  0  0  0
   22.7277   10.6438   29.5970 H   0  0  0  0  0  0  0  0  0  0  0  0
   23.8349   10.3587   30.9303 H   0  0  0  0  0  0  0  0  0  0  0  0
   24.0732   12.9200   31.2055 H   0  0  0  0  0  0  0  0  0  0  0  0
   24.6291   12.3287   29.6324 H   0  0  0  0  0  0  0  0  0  0  0  0
   26.7638    3.8409   31.7868 H   0  0  0  0  0  0  0  0  0  0  0  0
   22.6226   13.5837   29.4019 S   0  0  2  0  0  0  0  0  0  0  0  0
   21.8277   12.8079   28.4512 O   0  0  0  0  0  0  0  0  0  0  0  0
   23.4355   14.7091   28.9466 O   0  0  0  0  0  0  0  0  0  0  0  0
   21.4843   14.2376   30.7036 C   0  0  1  0  0  0  0  0  0  0  0  0
   20.8749   15.0030   30.2329 H   0  0  0  0  0  0  0  0  0  0  0  0
   20.8634   13.4208   31.0545 H   0  0  0  0  0  0  0  0  0  0  0  0
   22.0858   14.6567   31.5038 H   0  0  0  0  0  0  0  0  0  0  0  0
  1  2  1  0
  1  6  2  0
  1 27  1  0
  2  3  2  0
  2 19  1  0
  3  4  1  0
  3  7  1  0
  4  5  2  0
  4 28  1  0
  5  6  1  0
  5 17  1  0
  6 45  1  0
  7  8  1  0
  7 30  1  6
  7 31  1  0
  8  9  1  0
  8 11  2  0
  9 10  1  0
  9 32  1  0
 10 12  1  0
 10 16  2  0
 12 13  2  0
 13 14  1  0
 13 23  1  0
 14 15  2  0
 14 22  1  0
 15 16  1  0
 15 21  1  0
 16 29  1  0
 17 18  1  0
 18 33  1  1
 18 34  1  0
 18 35  1  0
 19 20  1  0
 20 36  1  1
 20 37  1  0
 20 38  1  0
 21 39  1  0
 21 40  1  0
 22 26  3  0
 23 24  1  0
 24 25  1  0
 24 41  1  6
 24 42  1  0
 25 43  1  1
 25 44  1  0
 46 25  1  1
 46 47  2  0
 46 48  2  0
 46 49  1  0
 49 50  1  6
 49 51  1  0
 49 52  1  0
M  END
