18634-1
     RDKit          3D

 46 47  0  0  1  0  0  0  0  0999 V2000
   25.3359    5.0253   30.7609 C   0  0  0  0  0  0  0  0  0  0  0  0
   24.0285    5.2355   30.2962 C   0  0  0  0  0  0  0  0  0  0  0  0
   23.0258    4.3197   30.6594 C   0  0  0  0  0  0  0  0  0  0  0  0
   23.3308    3.2417   31.4985 C   0  0  0  0  0  0  0  0  0  0  0  0
   24.6365    3.0433   31.9703 C   0  0  0  0  0  0  0  0  0  0  0  0
   25.6300    3.9390   31.5848 C   0  0  0  0  0  0  0  0  0  0  0  0
   21.5839    4.5065   30.1824 C   0  0  2  0  0  0  0  0  0  0  0  0
   20.8188    5.5166   31.0398 C   0  0  0  0  0  0  0  0  0  0  0  0
   21.2316    6.7869   30.9362 N   0  0  0  0  0  0  0  0  0  0  0  0
   20.7724    7.9326   31.5528 C   0  0  0  0  0  0  0  0  0  0  0  0
   19.8977    5.1258   31.7520 O   0  0  0  0  0  0  0  0  0  0  0  0
   21.5728    8.9824   31.2997 N   0  0  0  0  0  0  0  0  0  0  0  0
   21.2557   10.1942   31.8321 C   0  0  0  0  0  0  0  0  0  0  0  0
   20.1270   10.3846   32.6360 C   0  0  0  0  0  0  0  0  0  0  0  0
   19.3020    9.2756   32.8778 C   0  0  0  0  0  0  0  0  0  0  0  0
   19.6236    8.0396   32.3338 C   0  0  0  0  0  0  0  0  0  0  0  0
   25.0246    2.0138   32.8030 O   0  0  0  0  0  0  0  0  0  0  0  0
   24.0429    1.1055   33.2917 C   0  0  2  0  0  0  0  0  0  0  0  0
   23.6581    6.3082   29.5033 O   0  0  0  0  0  0  0  0  0  0  0  0
   24.5794    7.3752   29.2999 C   0  0  2  0  0  0  0  0  0  0  0  0
   18.1437    9.3405   33.6519 N   0  0  0  0  0  0  0  0  0  0  0  0
   19.8381   11.7012   33.1919 C   0  0  0  0  0  0  0  0  0  0  0  0
   22.1003   11.2564   31.5522 O   0  0  0  0  0  0  0  0  0  0  0  0
   23.2102   11.0950   30.6687 C   0  0  2  0  0  0  0  0  0  0  0  0
   22.7478   11.1291   29.2047 C   0  0  2  0  0  0  0  0  0  0  0  0
   19.6020   12.7426   33.6380 N   0  0  0  0  0  0  0  0  0  0  0  0
   26.1387    5.6953   30.4978 H   0  0  0  0  0  0  0  0  0  0  0  0
   22.5396    2.5666   31.7837 H   0  0  0  0  0  0  0  0  0  0  0  0
   18.9880    7.1880   32.5111 H   0  0  0  0  0  0  0  0  0  0  0  0
   21.0493    3.5571   30.1943 H   0  0  0  0  0  0  0  0  0  0  0  0
   21.5753    4.8467   29.1468 H   0  0  0  0  0  0  0  0  0  0  0  0
   22.0435    6.9558   30.3624 H   0  0  0  0  0  0  0  0  0  0  0  0
   23.5776    0.5458   32.4786 H   0  0  0  0  0  0  0  0  0  0  0  0
   23.2697    1.6209   33.8643 H   0  0  0  0  0  0  0  0  0  0  0  0
   24.5169    0.3838   33.9574 H   0  0  0  0  0  0  0  0  0  0  0  0
   25.4534    7.0482   28.7348 H   0  0  0  0  0  0  0  0  0  0  0  0
   24.9032    7.8095   30.2475 H   0  0  0  0  0  0  0  0  0  0  0  0
   24.0949    8.1663   28.7272 H   0  0  0  0  0  0  0  0  0  0  0  0
   17.6945    8.4782   33.9179 H   0  0  0  0  0  0  0  0  0  0  0  0
   17.9420   10.2004   34.1433 H   0  0  0  0  0  0  0  0  0  0  0  0
   23.7858   10.1938   30.8907 H   0  0  0  0  0  0  0  0  0  0  0  0
   23.8875   11.9306   30.8469 H   0  0  0  0  0  0  0  0  0  0  0  0
   23.5951   11.0621   28.5232 H   0  0  0  0  0  0  0  0  0  0  0  0
   22.2135   12.0544   28.9886 H   0  0  0  0  0  0  0  0  0  0  0  0
   22.0764   10.3000   28.9810 H   0  0  0  0  0  0  0  0  0  0  0  0
   26.6381    3.7886   31.9415 H   0  0  0  0  0  0  0  0  0  0  0  0
  1  2  1  0
  1  6  2  0
  1 27  1  0
  2  3  2  0
  2 19  1  0
  3  4  1  0
  3  7  1  0
  4  5  2  0
  4 28  1  0
  5  6  1  0
  5 17  1  0
  6 46  1  0
  7  8  1  0
  7 30  1  6
  7 31  1  0
  8  9  1  0
  8 11  2  0
  9 10  1  0
  9 32  1  0
 10 12  1  0
 10 16  2  0
 12 13  2  0
 13 14  1  0
 13 23  1  0
 14 15  2  0
 14 22  1  0
 15 16  1  0
 15 21  1  0
 16 29  1  0
 17 18  1  0
 18 33  1  6
 18 34  1  0
 18 35  1  0
 19 20  1  0
 20 36  1  6
 20 37  1  0
 20 38  1  0
 21 39  1  0
 21 40  1  0
 22 26  3  0
 23 24  1  0
 24 25  1  0
 24 41  1  1
 24 42  1  0
 25 43  1  6
 25 44  1  0
 25 45  1  0
M  END
