18635-1
     RDKit          3D

 44 45  0  0  1  0  0  0  0  0999 V2000
   25.4475    4.5094   30.8133 C   0  0  0  0  0  0  0  0  0  0  0  0
   24.2151    4.8260   30.2324 C   0  0  0  0  0  0  0  0  0  0  0  0
   23.0460    4.1977   30.7060 C   0  0  0  0  0  0  0  0  0  0  0  0
   23.1398    3.2705   31.7514 C   0  0  0  0  0  0  0  0  0  0  0  0
   24.3751    2.9540   32.3189 C   0  0  0  0  0  0  0  0  0  0  0  0
   25.5284    3.5801   31.8485 C   0  0  0  0  0  0  0  0  0  0  0  0
   21.6617    4.4972   30.1256 C   0  0  2  0  0  0  0  0  0  0  0  0
   20.8618    5.4928   30.9727 C   0  0  0  0  0  0  0  0  0  0  0  0
   21.3619    6.7348   31.0463 N   0  0  0  0  0  0  0  0  0  0  0  0
   20.8583    7.8705   31.6473 C   0  0  0  0  0  0  0  0  0  0  0  0
   19.8190    5.1224   31.5051 O   0  0  0  0  0  0  0  0  0  0  0  0
   21.6244    8.9417   31.3779 N   0  0  0  0  0  0  0  0  0  0  0  0
   21.2587   10.1528   31.8811 C   0  0  0  0  0  0  0  0  0  0  0  0
   20.1174   10.3200   32.6727 C   0  0  0  0  0  0  0  0  0  0  0  0
   19.3362    9.1857   32.9412 C   0  0  0  0  0  0  0  0  0  0  0  0
   19.7062    7.9510   32.4269 C   0  0  0  0  0  0  0  0  0  0  0  0
   18.1765    9.2238   33.7146 N   0  0  0  0  0  0  0  0  0  0  0  0
   19.7704   11.6393   33.1886 C   0  0  0  0  0  0  0  0  0  0  0  0
   22.0646   11.2399   31.5861 O   0  0  0  0  0  0  0  0  0  0  0  0
   23.1910   11.1055   30.7196 C   0  0  2  0  0  0  0  0  0  0  0  0
   22.7463   11.1278   29.2503 C   0  0  1  0  0  0  0  0  0  0  0  0
   19.4879   12.6822   33.6024 N   0  0  0  0  0  0  0  0  0  0  0  0
   26.3545    4.9786   30.4616 H   0  0  0  0  0  0  0  0  0  0  0  0
   22.2439    2.7919   32.1229 H   0  0  0  0  0  0  0  0  0  0  0  0
   19.1063    7.0796   32.6296 H   0  0  0  0  0  0  0  0  0  0  0  0
   21.0940    3.5680   30.0630 H   0  0  0  0  0  0  0  0  0  0  0  0
   21.7217    4.8700   29.1051 H   0  0  0  0  0  0  0  0  0  0  0  0
   22.2446    6.9158   30.6079 H   0  0  0  0  0  0  0  0  0  0  0  0
   17.7335    8.3549   33.9696 H   0  0  0  0  0  0  0  0  0  0  0  0
   17.9275   10.0889   34.1740 H   0  0  0  0  0  0  0  0  0  0  0  0
   23.7899   10.2215   30.9488 H   0  0  0  0  0  0  0  0  0  0  0  0
   23.8416   11.9602   30.9066 H   0  0  0  0  0  0  0  0  0  0  0  0
   23.6047   11.0959   28.5803 H   0  0  0  0  0  0  0  0  0  0  0  0
   22.1102   10.2740   29.0169 H   0  0  0  0  0  0  0  0  0  0  0  0
   22.1805   12.0333   29.0302 H   0  0  0  0  0  0  0  0  0  0  0  0
   24.4684    1.9392   33.4422 C   0  0  1  0  0  0  0  0  0  0  0  0
   25.3050    1.2592   33.2782 H   0  0  0  0  0  0  0  0  0  0  0  0
   24.6196    2.4458   34.3956 H   0  0  0  0  0  0  0  0  0  0  0  0
   23.5626    1.3364   33.5180 H   0  0  0  0  0  0  0  0  0  0  0  0
   24.1880    5.8305   29.0877 C   0  0  1  0  0  0  0  0  0  0  0  0
   25.1593    6.3049   28.9429 H   0  0  0  0  0  0  0  0  0  0  0  0
   23.9252    5.3311   28.1549 H   0  0  0  0  0  0  0  0  0  0  0  0
   23.4684    6.6268   29.2690 H   0  0  0  0  0  0  0  0  0  0  0  0
   26.4901    3.3453   32.2819 H   0  0  0  0  0  0  0  0  0  0  0  0
  1  2  1  0
  1  6  2  0
  1 23  1  0
  2  3  2  0
  2 40  1  0
  3  4  1  0
  3  7  1  0
  4  5  2  0
  4 24  1  0
  5  6  1  0
  5 36  1  0
  6 44  1  0
  7  8  1  0
  7 26  1  6
  7 27  1  0
  8  9  1  0
  8 11  2  0
  9 10  1  0
  9 28  1  0
 10 12  1  0
 10 16  2  0
 12 13  2  0
 13 14  1  0
 13 19  1  0
 14 15  2  0
 14 18  1  0
 15 16  1  0
 15 17  1  0
 16 25  1  0
 17 29  1  0
 17 30  1  0
 18 22  3  0
 19 20  1  0
 20 21  1  0
 20 31  1  1
 20 32  1  0
 21 33  1  6
 21 34  1  0
 21 35  1  0
 36 37  1  6
 36 38  1  0
 36 39  1  0
 40 41  1  6
 40 42  1  0
 40 43  1  0
M  END
