18633-1
     RDKit          3D

 42 43  0  0  1  0  0  0  0  0999 V2000
   24.8485    3.4574   31.9891 C   0  0  0  0  0  0  0  0  0  0  0  0
   23.5015    3.5438   31.6490 C   0  0  0  0  0  0  0  0  0  0  0  0
   23.1046    4.3519   30.5814 C   0  0  0  0  0  0  0  0  0  0  0  0
   24.0599    5.0767   29.8637 C   0  0  0  0  0  0  0  0  0  0  0  0
   25.4054    4.9907   30.2127 C   0  0  0  0  0  0  0  0  0  0  0  0
   25.8078    4.1764   31.2808 C   0  0  0  0  0  0  0  0  0  0  0  0
   21.6252    4.4580   30.2172 C   0  0  2  0  0  0  0  0  0  0  0  0
   20.8687    5.4783   31.0763 C   0  0  0  0  0  0  0  0  0  0  0  0
   21.2879    6.7498   30.9863 N   0  0  0  0  0  0  0  0  0  0  0  0
   20.8050    7.8954   31.5869 C   0  0  0  0  0  0  0  0  0  0  0  0
   19.9344    5.0941   31.7742 O   0  0  0  0  0  0  0  0  0  0  0  0
   21.5852    8.9546   31.3110 N   0  0  0  0  0  0  0  0  0  0  0  0
   21.2494   10.1689   31.8281 C   0  0  0  0  0  0  0  0  0  0  0  0
   20.1188   10.3532   32.6309 C   0  0  0  0  0  0  0  0  0  0  0  0
   19.3148    9.2340   32.8941 C   0  0  0  0  0  0  0  0  0  0  0  0
   19.6573    7.9950   32.3706 C   0  0  0  0  0  0  0  0  0  0  0  0
   18.1591    9.2904   33.6722 N   0  0  0  0  0  0  0  0  0  0  0  0
   19.8066   11.6737   33.1652 C   0  0  0  0  0  0  0  0  0  0  0  0
   22.0773   11.2409   31.5385 O   0  0  0  0  0  0  0  0  0  0  0  0
   23.1985   11.0885   30.6685 C   0  0  2  0  0  0  0  0  0  0  0  0
   22.7499   11.1396   29.2014 C   0  0  1  0  0  0  0  0  0  0  0  0
   19.5518   12.7178   33.5941 N   0  0  0  0  0  0  0  0  0  0  0  0
   25.1600    2.8322   32.8123 H   0  0  0  0  0  0  0  0  0  0  0  0
   23.7675    5.7058   29.0357 H   0  0  0  0  0  0  0  0  0  0  0  0
   19.0372    7.1361   32.5673 H   0  0  0  0  0  0  0  0  0  0  0  0
   21.1509    3.4828   30.3373 H   0  0  0  0  0  0  0  0  0  0  0  0
   21.5030    4.7268   29.1680 H   0  0  0  0  0  0  0  0  0  0  0  0
   22.0987    6.9459   30.4312 H   0  0  0  0  0  0  0  0  0  0  0  0
   17.7362    8.4225   33.9622 H   0  0  0  0  0  0  0  0  0  0  0  0
   17.9530   10.1509   34.1604 H   0  0  0  0  0  0  0  0  0  0  0  0
   23.7761   10.1872   30.8856 H   0  0  0  0  0  0  0  0  0  0  0  0
   23.8707   11.9244   30.8640 H   0  0  0  0  0  0  0  0  0  0  0  0
   23.6047   11.0902   28.5277 H   0  0  0  0  0  0  0  0  0  0  0  0
   22.0882   10.3074   28.9613 H   0  0  0  0  0  0  0  0  0  0  0  0
   22.2097   12.0634   28.9932 H   0  0  0  0  0  0  0  0  0  0  0  0
   27.1138    4.0255   31.6985 O   0  0  0  0  0  0  0  0  0  0  0  0
   26.1233    5.5598   29.6449 H   0  0  0  0  0  0  0  0  0  0  0  0
   22.7705    2.9854   32.2172 H   0  0  0  0  0  0  0  0  0  0  0  0
   28.1442    4.7602   31.0477 C   0  0  1  0  0  0  0  0  0  0  0  0
   29.1018    4.5224   31.5110 H   0  0  0  0  0  0  0  0  0  0  0  0
   28.2177    4.4998   29.9908 H   0  0  0  0  0  0  0  0  0  0  0  0
   27.9910    5.8361   31.1444 H   0  0  0  0  0  0  0  0  0  0  0  0
  1  2  1  0
  1  6  2  0
  1 23  1  0
  2  3  2  0
  2 38  1  0
  3  4  1  0
  3  7  1  0
  4  5  2  0
  4 24  1  0
  5  6  1  0
  5 37  1  0
  6 36  1  0
  7  8  1  0
  7 26  1  6
  7 27  1  0
  8  9  1  0
  8 11  2  0
  9 10  1  0
  9 28  1  0
 10 12  1  0
 10 16  2  0
 12 13  2  0
 13 14  1  0
 13 19  1  0
 14 15  2  0
 14 18  1  0
 15 16  1  0
 15 17  1  0
 16 25  1  0
 17 29  1  0
 17 30  1  0
 18 22  3  0
 19 20  1  0
 20 21  1  0
 20 31  1  1
 20 32  1  0
 21 33  1  6
 21 34  1  0
 21 35  1  0
 36 39  1  0
 39 40  1  1
 39 41  1  0
 39 42  1  0
M  END
