18630-1
     RDKit          3D

 41 42  0  0  1  0  0  0  0  0999 V2000
   25.3946    5.0415   30.1739 C   0  0  0  0  0  0  0  0  0  0  0  0
   24.0446    5.1091   29.8400 C   0  0  0  0  0  0  0  0  0  0  0  0
   23.1072    4.3721   30.5702 C   0  0  0  0  0  0  0  0  0  0  0  0
   23.5256    3.5708   31.6356 C   0  0  0  0  0  0  0  0  0  0  0  0
   24.8764    3.5005   31.9654 C   0  0  0  0  0  0  0  0  0  0  0  0
   25.8102    4.2377   31.2358 C   0  0  0  0  0  0  0  0  0  0  0  0
   21.6236    4.4577   30.2205 C   0  0  2  0  0  0  0  0  0  0  0  0
   20.8650    5.4790   31.0753 C   0  0  0  0  0  0  0  0  0  0  0  0
   21.2909    6.7487   30.9939 N   0  0  0  0  0  0  0  0  0  0  0  0
   20.8065    7.8952   31.5915 C   0  0  0  0  0  0  0  0  0  0  0  0
   19.9208    5.0974   31.7614 O   0  0  0  0  0  0  0  0  0  0  0  0
   21.5874    8.9542   31.3168 N   0  0  0  0  0  0  0  0  0  0  0  0
   21.2508   10.1692   31.8310 C   0  0  0  0  0  0  0  0  0  0  0  0
   20.1190   10.3546   32.6318 C   0  0  0  0  0  0  0  0  0  0  0  0
   19.3142    9.2359   32.8944 C   0  0  0  0  0  0  0  0  0  0  0  0
   19.6574    7.9962   32.3732 C   0  0  0  0  0  0  0  0  0  0  0  0
   18.1573    9.2932   33.6710 N   0  0  0  0  0  0  0  0  0  0  0  0
   19.8062   11.6755   33.1647 C   0  0  0  0  0  0  0  0  0  0  0  0
   22.0794   11.2408   31.5413 O   0  0  0  0  0  0  0  0  0  0  0  0
   23.2007   11.0868   30.6716 C   0  0  2  0  0  0  0  0  0  0  0  0
   22.7524   11.1363   29.2042 C   0  0  1  0  0  0  0  0  0  0  0  0
   19.5507   12.7199   33.5924 N   0  0  0  0  0  0  0  0  0  0  0  0
   26.1160    5.6117   29.6066 H   0  0  0  0  0  0  0  0  0  0  0  0
   22.8053    3.0040   32.2094 H   0  0  0  0  0  0  0  0  0  0  0  0
   19.0367    7.1378   32.5697 H   0  0  0  0  0  0  0  0  0  0  0  0
   21.1625    3.4785   30.3558 H   0  0  0  0  0  0  0  0  0  0  0  0
   21.4892    4.7143   29.1699 H   0  0  0  0  0  0  0  0  0  0  0  0
   22.1096    6.9410   30.4484 H   0  0  0  0  0  0  0  0  0  0  0  0
   17.7298    8.4261   33.9567 H   0  0  0  0  0  0  0  0  0  0  0  0
   17.9484   10.1548   34.1561 H   0  0  0  0  0  0  0  0  0  0  0  0
   23.7781   10.1855   30.8894 H   0  0  0  0  0  0  0  0  0  0  0  0
   23.8731   11.9227   30.8662 H   0  0  0  0  0  0  0  0  0  0  0  0
   23.6075   11.0857   28.5308 H   0  0  0  0  0  0  0  0  0  0  0  0
   22.0907   10.3038   28.9648 H   0  0  0  0  0  0  0  0  0  0  0  0
   22.2125   12.0600   28.9947 H   0  0  0  0  0  0  0  0  0  0  0  0
   23.7348    5.7323   29.0136 H   0  0  0  0  0  0  0  0  0  0  0  0
   25.1921    2.8748   32.7876 H   0  0  0  0  0  0  0  0  0  0  0  0
   27.2831    4.1614   31.5895 C   0  0  1  0  0  0  0  0  0  0  0  0
   27.7960    3.4777   30.9127 H   0  0  0  0  0  0  0  0  0  0  0  0
   27.7543    5.1416   31.5088 H   0  0  0  0  0  0  0  0  0  0  0  0
   27.4331    3.8062   32.6097 H   0  0  0  0  0  0  0  0  0  0  0  0
  1  2  1  0
  1  6  2  0
  1 23  1  0
  2  3  2  0
  2 36  1  0
  3  4  1  0
  3  7  1  0
  4  5  2  0
  4 24  1  0
  5  6  1  0
  5 37  1  0
  6 38  1  0
  7  8  1  0
  7 26  1  6
  7 27  1  0
  8  9  1  0
  8 11  2  0
  9 10  1  0
  9 28  1  0
 10 12  1  0
 10 16  2  0
 12 13  2  0
 13 14  1  0
 13 19  1  0
 14 15  2  0
 14 18  1  0
 15 16  1  0
 15 17  1  0
 16 25  1  0
 17 29  1  0
 17 30  1  0
 18 22  3  0
 19 20  1  0
 20 21  1  0
 20 31  1  1
 20 32  1  0
 21 33  1  6
 21 34  1  0
 21 35  1  0
 38 39  1  6
 38 40  1  0
 38 41  1  0
M  END
