18638-1 flip
     RDKit          3D

 52 53  0  0  1  0  0  0  0  0999 V2000
   24.9560    3.1278   31.5728 C   0  0  0  0  0  0  0  0  0  0  0  0
   23.5871    3.2100   31.2821 C   0  0  0  0  0  0  0  0  0  0  0  0
   23.1141    4.3126   30.5528 C   0  0  0  0  0  0  0  0  0  0  0  0
   24.0112    5.2790   30.0893 C   0  0  0  0  0  0  0  0  0  0  0  0
   25.3828    5.1923   30.3692 C   0  0  0  0  0  0  0  0  0  0  0  0
   25.8477    4.1145   31.1307 C   0  0  0  0  0  0  0  0  0  0  0  0
   21.6236    4.4700   30.2430 C   0  0  2  0  0  0  0  0  0  0  0  0
   20.9308    5.4835   31.1564 C   0  0  0  0  0  0  0  0  0  0  0  0
   21.2802    6.7642   30.9707 N   0  0  0  0  0  0  0  0  0  0  0  0
   20.8175    7.9134   31.5797 C   0  0  0  0  0  0  0  0  0  0  0  0
   20.1111    5.0875   31.9807 O   0  0  0  0  0  0  0  0  0  0  0  0
   21.6020    8.9724   31.3106 N   0  0  0  0  0  0  0  0  0  0  0  0
   21.2662   10.1844   31.8341 C   0  0  0  0  0  0  0  0  0  0  0  0
   20.1345   10.3669   32.6353 C   0  0  0  0  0  0  0  0  0  0  0  0
   19.3260    9.2491   32.8893 C   0  0  0  0  0  0  0  0  0  0  0  0
   19.6679    8.0122   32.3604 C   0  0  0  0  0  0  0  0  0  0  0  0
   26.3020    6.1273   29.9387 O   0  0  0  0  0  0  0  0  0  0  0  0
   25.9093    7.1597   29.0429 C   0  0  1  0  0  0  0  0  0  0  0  0
   22.6627    2.2599   31.6818 O   0  0  0  0  0  0  0  0  0  0  0  0
   23.1136    0.9695   32.0850 C   0  0  1  0  0  0  0  0  0  0  0  0
   18.1650    9.3050   33.6594 N   0  0  0  0  0  0  0  0  0  0  0  0
   19.8246   11.6857   33.1760 C   0  0  0  0  0  0  0  0  0  0  0  0
   22.0946   11.2575   31.5491 O   0  0  0  0  0  0  0  0  0  0  0  0
   23.2043   11.1140   30.6644 C   0  0  2  0  0  0  0  0  0  0  0  0
   22.7360   11.1545   29.2025 C   0  0  1  0  0  0  0  0  0  0  0  0
   19.5721   12.7278   33.6094 N   0  0  0  0  0  0  0  0  0  0  0  0
   25.3217    2.2996   32.1528 H   0  0  0  0  0  0  0  0  0  0  0  0
   23.6262    6.1043   29.5123 H   0  0  0  0  0  0  0  0  0  0  0  0
   19.0433    7.1531   32.5441 H   0  0  0  0  0  0  0  0  0  0  0  0
   21.1084    3.5129   30.3304 H   0  0  0  0  0  0  0  0  0  0  0  0
   21.4944    4.7862   29.2076 H   0  0  0  0  0  0  0  0  0  0  0  0
   22.0239    6.9444   30.3151 H   0  0  0  0  0  0  0  0  0  0  0  0
   25.4938    6.7545   28.1188 H   0  0  0  0  0  0  0  0  0  0  0  0
   25.1862    7.8361   29.5008 H   0  0  0  0  0  0  0  0  0  0  0  0
   26.7862    7.7501   28.7766 H   0  0  0  0  0  0  0  0  0  0  0  0
   22.2508    0.3173   32.2217 H   0  0  0  0  0  0  0  0  0  0  0  0
   23.7517    0.5104   31.3273 H   0  0  0  0  0  0  0  0  0  0  0  0
   23.6483    1.0068   33.0349 H   0  0  0  0  0  0  0  0  0  0  0  0
   17.7352    8.4378   33.9419 H   0  0  0  0  0  0  0  0  0  0  0  0
   17.9526   10.1661   34.1449 H   0  0  0  0  0  0  0  0  0  0  0  0
   23.7910   10.2188   30.8795 H   0  0  0  0  0  0  0  0  0  0  0  0
   23.8719   11.9566   30.8481 H   0  0  0  0  0  0  0  0  0  0  0  0
   22.1901   12.0755   28.9967 H   0  0  0  0  0  0  0  0  0  0  0  0
   23.5813   11.1045   28.5169 H   0  0  0  0  0  0  0  0  0  0  0  0
   22.0719   10.3205   28.9750 H   0  0  0  0  0  0  0  0  0  0  0  0
   27.5987    4.0361   31.5250 S   0  0  2  0  0  0  0  0  0  0  0  0
   27.8966    5.1634   32.4104 O   0  0  0  0  0  0  0  0  0  0  0  0
   28.3234    3.8380   30.2689 O   0  0  0  0  0  0  0  0  0  0  0  0
   27.8679    2.4962   32.5335 C   0  0  1  0  0  0  0  0  0  0  0  0
   28.9300    2.4758   32.7649 H   0  0  0  0  0  0  0  0  0  0  0  0
   27.2847    2.5813   33.4455 H   0  0  0  0  0  0  0  0  0  0  0  0
   27.5974    1.6396   31.9235 H   0  0  0  0  0  0  0  0  0  0  0  0
  1  2  1  0
  1  6  2  0
  1 27  1  0
  2  3  2  0
  2 19  1  0
  3  4  1  0
  3  7  1  0
  4  5  2  0
  4 28  1  0
  5  6  1  0
  5 17  1  0
 46  6  1  6
  7  8  1  0
  7 30  1  6
  7 31  1  0
  8  9  1  0
  8 11  2  0
  9 10  1  0
  9 32  1  0
 10 12  1  0
 10 16  2  0
 12 13  2  0
 13 14  1  0
 13 23  1  0
 14 15  2  0
 14 22  1  0
 15 16  1  0
 15 21  1  0
 16 29  1  0
 17 18  1  0
 18 33  1  6
 18 34  1  0
 18 35  1  0
 19 20  1  0
 20 36  1  1
 20 37  1  0
 20 38  1  0
 21 39  1  0
 21 40  1  0
 22 26  3  0
 23 24  1  0
 24 25  1  0
 24 41  1  1
 24 42  1  0
 25 43  1  1
 25 44  1  0
 25 45  1  0
 46 47  2  0
 46 48  2  0
 46 49  1  0
 49 50  1  1
 49 51  1  0
 49 52  1  0
M  END
