18629-1
     RDKit          3D

 41 42  0  0  1  0  0  0  0  0999 V2000
   25.4009    4.9995   30.1856 C   0  0  0  0  0  0  0  0  0  0  0  0
   24.0494    5.0789   29.8496 C   0  0  0  0  0  0  0  0  0  0  0  0
   23.0988    4.3595   30.5825 C   0  0  0  0  0  0  0  0  0  0  0  0
   23.5148    3.5645   31.6558 C   0  0  0  0  0  0  0  0  0  0  0  0
   24.8683    3.4792   31.9913 C   0  0  0  0  0  0  0  0  0  0  0  0
   25.8103    4.2001   31.2528 C   0  0  0  0  0  0  0  0  0  0  0  0
   21.6174    4.4557   30.2293 C   0  0  2  0  0  0  0  0  0  0  0  0
   20.8650    5.4790   31.0865 C   0  0  0  0  0  0  0  0  0  0  0  0
   21.2839    6.7501   30.9907 N   0  0  0  0  0  0  0  0  0  0  0  0
   20.8020    7.8975   31.5885 C   0  0  0  0  0  0  0  0  0  0  0  0
   19.9324    5.0975   31.7885 O   0  0  0  0  0  0  0  0  0  0  0  0
   21.5854    8.9548   31.3149 N   0  0  0  0  0  0  0  0  0  0  0  0
   21.2518   10.1700   31.8306 C   0  0  0  0  0  0  0  0  0  0  0  0
   20.1202   10.3576   32.6311 C   0  0  0  0  0  0  0  0  0  0  0  0
   19.3117    9.2409   32.8911 C   0  0  0  0  0  0  0  0  0  0  0  0
   19.6519    8.0009   32.3685 C   0  0  0  0  0  0  0  0  0  0  0  0
   18.1536    9.3006   33.6659 N   0  0  0  0  0  0  0  0  0  0  0  0
   19.8115   11.6784   33.1667 C   0  0  0  0  0  0  0  0  0  0  0  0
   22.0834   11.2397   31.5421 O   0  0  0  0  0  0  0  0  0  0  0  0
   23.2035   11.0838   30.6709 C   0  0  2  0  0  0  0  0  0  0  0  0
   22.7536   11.1336   29.2041 C   0  0  1  0  0  0  0  0  0  0  0  0
   19.5596   12.7227   33.5965 N   0  0  0  0  0  0  0  0  0  0  0  0
   26.1330    5.5553   29.6182 H   0  0  0  0  0  0  0  0  0  0  0  0
   22.7841    3.0128   32.2309 H   0  0  0  0  0  0  0  0  0  0  0  0
   19.0284    7.1439   32.5626 H   0  0  0  0  0  0  0  0  0  0  0  0
   21.1500    3.4789   30.3609 H   0  0  0  0  0  0  0  0  0  0  0  0
   21.4872    4.7162   29.1791 H   0  0  0  0  0  0  0  0  0  0  0  0
   22.0953    6.9427   30.4345 H   0  0  0  0  0  0  0  0  0  0  0  0
   17.7230    8.4345   33.9501 H   0  0  0  0  0  0  0  0  0  0  0  0
   17.9468   10.1624   34.1519 H   0  0  0  0  0  0  0  0  0  0  0  0
   23.7791   10.1813   30.8886 H   0  0  0  0  0  0  0  0  0  0  0  0
   23.8781   11.9183   30.8642 H   0  0  0  0  0  0  0  0  0  0  0  0
   23.6077   11.0793   28.5299 H   0  0  0  0  0  0  0  0  0  0  0  0
   22.0887   10.3033   28.9661 H   0  0  0  0  0  0  0  0  0  0  0  0
   22.2167   12.0591   28.9943 H   0  0  0  0  0  0  0  0  0  0  0  0
   26.8602    4.1431   31.5027 H   0  0  0  0  0  0  0  0  0  0  0  0
   23.7486    5.6984   29.0173 H   0  0  0  0  0  0  0  0  0  0  0  0
   25.3041    2.6027   33.1498 C   0  0  1  0  0  0  0  0  0  0  0  0
   26.3689    2.7062   33.3613 H   0  0  0  0  0  0  0  0  0  0  0  0
   24.7564    2.8668   34.0550 H   0  0  0  0  0  0  0  0  0  0  0  0
   25.1067    1.5544   32.9236 H   0  0  0  0  0  0  0  0  0  0  0  0
  1  2  1  0
  1  6  2  0
  1 23  1  0
  2  3  2  0
  2 37  1  0
  3  4  1  0
  3  7  1  0
  4  5  2  0
  4 24  1  0
  5  6  1  0
  5 38  1  0
  6 36  1  0
  7  8  1  0
  7 26  1  6
  7 27  1  0
  8  9  1  0
  8 11  2  0
  9 10  1  0
  9 28  1  0
 10 12  1  0
 10 16  2  0
 12 13  2  0
 13 14  1  0
 13 19  1  0
 14 15  2  0
 14 18  1  0
 15 16  1  0
 15 17  1  0
 16 25  1  0
 17 29  1  0
 17 30  1  0
 18 22  3  0
 19 20  1  0
 20 21  1  0
 20 31  1  1
 20 32  1  0
 21 33  1  6
 21 34  1  0
 21 35  1  0
 38 39  1  1
 38 40  1  0
 38 41  1  0
M  END
