18658-1 flip
     RDKit          3D

 47 48  0  0  1  0  0  0  0  0999 V2000
   24.7879    3.0239   31.8562 C   0  0  0  0  0  0  0  0  0  0  0  0
   23.4488    3.1620   31.4604 C   0  0  0  0  0  0  0  0  0  0  0  0
   23.0840    4.2778   30.6867 C   0  0  0  0  0  0  0  0  0  0  0  0
   24.0521    5.2150   30.3063 C   0  0  0  0  0  0  0  0  0  0  0  0
   25.3887    5.0708   30.7044 C   0  0  0  0  0  0  0  0  0  0  0  0
   25.7400    3.9711   31.4821 C   0  0  0  0  0  0  0  0  0  0  0  0
   21.6366    4.4735   30.2290 C   0  0  2  0  0  0  0  0  0  0  0  0
   20.8826    5.4969   31.0822 C   0  0  0  0  0  0  0  0  0  0  0  0
   21.2994    6.7662   30.9683 N   0  0  0  0  0  0  0  0  0  0  0  0
   20.8290    7.9211   31.5628 C   0  0  0  0  0  0  0  0  0  0  0  0
   19.9598    5.1168   31.7981 O   0  0  0  0  0  0  0  0  0  0  0  0
   21.6367    8.9701   31.3231 N   0  0  0  0  0  0  0  0  0  0  0  0
   21.3058   10.1846   31.8449 C   0  0  0  0  0  0  0  0  0  0  0  0
   20.1533   10.3804   32.6130 C   0  0  0  0  0  0  0  0  0  0  0  0
   19.3228    9.2728   32.8391 C   0  0  0  0  0  0  0  0  0  0  0  0
   19.6595    8.0342   32.3120 C   0  0  0  0  0  0  0  0  0  0  0  0
   26.4049    5.9460   30.3821 O   0  0  0  0  0  0  0  0  0  0  0  0
   26.1172    7.0841   29.5774 C   0  0  1  0  0  0  0  0  0  0  0  0
   22.4556    2.2517   31.7804 O   0  0  0  0  0  0  0  0  0  0  0  0
   22.8050    1.0428   32.4472 C   0  0  1  0  0  0  0  0  0  0  0  0
   18.1467    9.3394   33.5856 N   0  0  0  0  0  0  0  0  0  0  0  0
   19.8480   11.6982   33.1575 C   0  0  0  0  0  0  0  0  0  0  0  0
   22.1687   11.2404   31.6030 O   0  0  0  0  0  0  0  0  0  0  0  0
   23.3443   11.0621   30.8027 C   0  0  2  0  0  0  0  0  0  0  0  0
   23.0361   11.0010   29.2902 C   0  0  1  0  0  0  0  0  0  0  0  0
   19.5970   12.7391   33.5958 N   0  0  0  0  0  0  0  0  0  0  0  0
   25.1134    2.1876   32.4531 H   0  0  0  0  0  0  0  0  0  0  0  0
   23.7535    6.0530   29.6966 H   0  0  0  0  0  0  0  0  0  0  0  0
   19.0181    7.1846   32.4786 H   0  0  0  0  0  0  0  0  0  0  0  0
   21.0929    3.5288   30.2536 H   0  0  0  0  0  0  0  0  0  0  0  0
   21.6195    4.8042   29.1904 H   0  0  0  0  0  0  0  0  0  0  0  0
   22.1174    6.9244   30.4002 H   0  0  0  0  0  0  0  0  0  0  0  0
   25.3965    7.7451   30.0613 H   0  0  0  0  0  0  0  0  0  0  0  0
   27.0331    7.6547   29.4230 H   0  0  0  0  0  0  0  0  0  0  0  0
   25.7399    6.7963   28.5949 H   0  0  0  0  0  0  0  0  0  0  0  0
   21.9097    0.4359   32.5804 H   0  0  0  0  0  0  0  0  0  0  0  0
   23.5159    0.4549   31.8639 H   0  0  0  0  0  0  0  0  0  0  0  0
   23.2208    1.2350   33.4375 H   0  0  0  0  0  0  0  0  0  0  0  0
   17.7221    8.4738   33.8799 H   0  0  0  0  0  0  0  0  0  0  0  0
   17.9510   10.1988   34.0808 H   0  0  0  0  0  0  0  0  0  0  0  0
   23.8894   10.1712   31.1190 H   0  0  0  0  0  0  0  0  0  0  0  0
   24.0165   11.8977   30.9994 H   0  0  0  0  0  0  0  0  0  0  0  0
   22.6649   12.2749   28.7896 O   0  0  0  0  0  0  0  0  0  0  0  0
   23.9244   10.6700   28.7508 H   0  0  0  0  0  0  0  0  0  0  0  0
   22.2539   10.2711   29.0789 H   0  0  0  0  0  0  0  0  0  0  0  0
   26.7682    3.8547   31.7909 H   0  0  0  0  0  0  0  0  0  0  0  0
   22.2578   12.1783   27.9240 H   0  0  0  0  0  0  0  0  0  0  0  0
  1  2  1  0
  1  6  2  0
  1 27  1  0
  2  3  2  0
  2 19  1  0
  3  4  1  0
  3  7  1  0
  4  5  2  0
  4 28  1  0
  5  6  1  0
  5 17  1  0
  6 46  1  0
  7  8  1  0
  7 30  1  6
  7 31  1  0
  8  9  1  0
  8 11  2  0
  9 10  1  0
  9 32  1  0
 10 12  1  0
 10 16  2  0
 12 13  2  0
 13 14  1  0
 13 23  1  0
 14 15  2  0
 14 22  1  0
 15 16  1  0
 15 21  1  0
 16 29  1  0
 17 18  1  0
 18 33  1  1
 18 34  1  0
 18 35  1  0
 19 20  1  0
 20 36  1  1
 20 37  1  0
 20 38  1  0
 21 39  1  0
 21 40  1  0
 22 26  3  0
 23 24  1  0
 24 25  1  0
 24 41  1  1
 24 42  1  0
 25 43  1  0
 25 44  1  6
 25 45  1  0
 43 47  1  0
M  END
