18636-1 flip
     RDKit          3D

 38 39  0  0  1  0  0  0  0  0999 V2000
   24.4625    2.7679   32.1857 C   0  0  0  0  0  0  0  0  0  0  0  0
   23.1920    3.0508   31.6830 C   0  0  0  0  0  0  0  0  0  0  0  0
   23.0093    4.1332   30.8032 C   0  0  0  0  0  0  0  0  0  0  0  0
   24.1158    4.9102   30.4376 C   0  0  0  0  0  0  0  0  0  0  0  0
   25.3808    4.6256   30.9491 C   0  0  0  0  0  0  0  0  0  0  0  0
   25.5551    3.5548   31.8228 C   0  0  0  0  0  0  0  0  0  0  0  0
   21.6363    4.4765   30.2246 C   0  0  2  0  0  0  0  0  0  0  0  0
   20.8832    5.4835   31.0953 C   0  0  0  0  0  0  0  0  0  0  0  0
   21.2581    6.7629   30.9583 N   0  0  0  0  0  0  0  0  0  0  0  0
   20.7835    7.9022   31.5737 C   0  0  0  0  0  0  0  0  0  0  0  0
   20.0058    5.0808   31.8535 O   0  0  0  0  0  0  0  0  0  0  0  0
   21.5688    8.9580   31.3064 N   0  0  0  0  0  0  0  0  0  0  0  0
   21.2425   10.1703   31.8315 C   0  0  0  0  0  0  0  0  0  0  0  0
   20.1146   10.3548   32.6381 C   0  0  0  0  0  0  0  0  0  0  0  0
   19.3045    9.2377   32.8946 C   0  0  0  0  0  0  0  0  0  0  0  0
   19.6388    7.9999   32.3616 C   0  0  0  0  0  0  0  0  0  0  0  0
   18.1497    9.2958   33.6743 N   0  0  0  0  0  0  0  0  0  0  0  0
   19.8115   11.6732   33.1824 C   0  0  0  0  0  0  0  0  0  0  0  0
   22.0783   11.2373   31.5451 O   0  0  0  0  0  0  0  0  0  0  0  0
   23.1986   11.0767   30.6734 C   0  0  2  0  0  0  0  0  0  0  0  0
   22.7513   11.1202   29.2055 C   0  0  1  0  0  0  0  0  0  0  0  0
   19.5638   12.7157   33.6190 N   0  0  0  0  0  0  0  0  0  0  0  0
   24.5977    1.9325   32.8569 H   0  0  0  0  0  0  0  0  0  0  0  0
   24.0011    5.7383   29.7521 H   0  0  0  0  0  0  0  0  0  0  0  0
   19.0152    7.1411   32.5490 H   0  0  0  0  0  0  0  0  0  0  0  0
   21.0309    3.5730   30.1438 H   0  0  0  0  0  0  0  0  0  0  0  0
   21.7208    4.8554   29.2066 H   0  0  0  0  0  0  0  0  0  0  0  0
   22.0279    6.9760   30.3485 H   0  0  0  0  0  0  0  0  0  0  0  0
   17.7152    8.4306   33.9552 H   0  0  0  0  0  0  0  0  0  0  0  0
   17.9421   10.1577   34.1597 H   0  0  0  0  0  0  0  0  0  0  0  0
   23.7722   10.1737   30.8944 H   0  0  0  0  0  0  0  0  0  0  0  0
   23.8753   11.9101   30.8635 H   0  0  0  0  0  0  0  0  0  0  0  0
   23.6069   11.0608   28.5336 H   0  0  0  0  0  0  0  0  0  0  0  0
   22.0872   10.2889   28.9693 H   0  0  0  0  0  0  0  0  0  0  0  0
   22.2159   12.0450   28.9897 H   0  0  0  0  0  0  0  0  0  0  0  0
   26.5386    3.3360   32.2125 H   0  0  0  0  0  0  0  0  0  0  0  0
   26.8698    5.6993   30.4545 Br  0  0  0  0  0  0  0  0  0  0  0  0
   21.7431    1.9260   32.2085 Br  0  0  0  0  0  0  0  0  0  0  0  0
  1  2  1  0
  1  6  2  0
  1 23  1  0
  2  3  2  0
  2 38  1  0
  3  4  1  0
  3  7  1  0
  4  5  2  0
  4 24  1  0
  5  6  1  0
  5 37  1  0
  6 36  1  0
  7  8  1  0
  7 26  1  6
  7 27  1  0
  8  9  1  0
  8 11  2  0
  9 10  1  0
  9 28  1  0
 10 12  1  0
 10 16  2  0
 12 13  2  0
 13 14  1  0
 13 19  1  0
 14 15  2  0
 14 18  1  0
 15 16  1  0
 15 17  1  0
 16 25  1  0
 17 29  1  0
 17 30  1  0
 18 22  3  0
 19 20  1  0
 20 21  1  0
 20 31  1  1
 20 32  1  0
 21 33  1  6
 21 34  1  0
 21 35  1  0
M  END
