jmc_32charg
     RDKit          3D

 38 40  0  0  1  0  0  0  0  0999 V2000
   -1.9612   21.5502  -27.3300 C   0  0  0  0  0  0  0  0  0  0  0  0
   -1.2942   22.4120  -28.1957 C   0  0  0  0  0  0  0  0  0  0  0  0
   -1.9550   22.9520  -29.2938 C   0  0  0  0  0  0  0  0  0  0  0  0
   -3.2998   22.6223  -29.5426 C   0  0  0  0  0  0  0  0  0  0  0  0
   -3.9689   21.7588  -28.6534 C   0  0  0  0  0  0  0  0  0  0  0  0
   -3.2917   21.2292  -27.5624 C   0  0  0  0  0  0  0  0  0  0  0  0
   -5.6403   21.3533  -28.9190 Cl  0  0  0  0  0  0  0  0  0  0  0  0
   -4.0401   23.1522  -30.7110 C   0  0  0  0  0  0  0  0  0  0  0  0
   -4.2265   22.4198  -31.6685 O   0  0  0  0  0  0  0  0  0  0  0  0
   -4.5133   24.4119  -30.6476 N   0  0  0  0  0  0  0  0  0  0  0  0
   -5.2869   25.1112  -31.5800 C   0  0  0  0  0  0  0  0  0  0  0  0
   -5.9620   24.5479  -32.6807 C   0  0  0  0  0  0  0  0  0  0  0  0
   -6.7806   25.3609  -33.4589 C   0  0  0  0  0  0  0  0  0  0  0  0
   -6.9234   26.6542  -33.1828 N   0  0  0  0  0  0  0  0  0  0  0  0
   -6.2987   27.2309  -32.1585 C   0  0  0  0  0  0  0  0  0  0  0  0
   -5.5070   26.4571  -31.3066 C   0  0  0  0  0  0  0  0  0  0  0  0
   -6.5387   28.5841  -31.8831 N   0  0  0  0  0  0  0  0  0  0  0  0
   -5.7133   29.4440  -31.2335 C   0  0  0  0  0  0  0  0  0  0  0  0
   -4.6156   29.1215  -30.8098 O   0  0  0  0  0  0  0  0  0  0  0  0
   -6.2317   30.8478  -31.0314 C   0  0  1  0  0  0  0  0  0  0  0  0
   -5.5793   31.7456  -29.9758 C   0  0  1  0  0  0  0  0  0  0  0  0
   -5.3432   32.0880  -31.4058 C   0  0  1  0  0  0  0  0  0  0  0  0
   -1.1124   24.0506  -30.3318 Cl  0  0  0  0  0  0  0  0  0  0  0  0
   -7.3053   30.9413  -31.1624 H   0  0  0  0  0  0  0  0  0  0  0  0
   -5.8632   32.8963  -31.8826 H   0  0  0  0  0  0  0  0  0  0  0  0
   -1.4436   21.1321  -26.4786 H   0  0  0  0  0  0  0  0  0  0  0  0
   -0.2591   22.6635  -28.0157 H   0  0  0  0  0  0  0  0  0  0  0  0
   -3.8111   20.5610  -26.8909 H   0  0  0  0  0  0  0  0  0  0  0  0
   -4.3168   24.9848  -29.8393 H   0  0  0  0  0  0  0  0  0  0  0  0
   -5.8400   23.4993  -32.9094 H   0  0  0  0  0  0  0  0  0  0  0  0
   -7.3119   24.9439  -34.3018 H   0  0  0  0  0  0  0  0  0  0  0  0
   -5.0645   26.9093  -30.4313 H   0  0  0  0  0  0  0  0  0  0  0  0
   -7.4044   29.0123  -32.1803 H   0  0  0  0  0  0  0  0  0  0  0  0
   -6.3522   32.2038  -29.3585 H   0  0  0  0  0  0  0  0  0  0  0  0
   -4.9172   31.1490  -29.3474 H   0  0  0  0  0  0  0  0  0  0  0  0
   -3.8988   32.2566  -31.8943 C   0  0  0  0  0  0  0  0  0  0  0  0
   -3.1072   32.9673  -31.2449 O   0  0  0  0  0  0  0  0  0  0  0  0
   -3.7376   32.1216  -33.1128 O   0  0  0  0  0  0  0  0  0  0  0  0
  1  2  1  0
  1  6  2  0
  1 26  1  0
  2  3  2  0
  2 27  1  0
  3  4  1  0
  3 23  1  0
  4  5  2  0
  4  8  1  0
  5  6  1  0
  5  7  1  0
  6 28  1  0
  8  9  2  0
  8 10  1  0
 10 11  1  0
 10 29  1  0
 11 12  1  0
 11 16  2  0
 12 13  2  0
 12 30  1  0
 13 14  1  0
 13 31  1  0
 14 15  2  0
 15 16  1  0
 15 17  1  0
 16 32  1  0
 17 18  1  0
 17 33  1  0
 18 19  2  0
 18 20  1  0
 20 21  1  0
 20 22  1  0
 20 24  1  1
 21 22  1  0
 21 34  1  1
 21 35  1  0
 22 25  1  1
 22 36  1  0
 36 37  1  0
 36 38  2  0
M  CHG  1  37  -1
M  END
