53 flip
     RDKit          3D

 56 60  0  0  1  0  0  0  0  0999 V2000
   93.3094   49.8018  267.6715 C   0  0  0  0  0  0  0  0  0  0  0  0
   92.5663   47.3465  266.4764 C   0  0  0  0  0  0  0  0  0  0  0  0
   91.6141   48.3425  266.6765 C   0  0  0  0  0  0  0  0  0  0  0  0
   91.9847   49.5423  267.2840 C   0  0  0  0  0  0  0  0  0  0  0  0
   93.8976   47.5374  266.9026 C   0  0  0  0  0  0  0  0  0  0  0  0
   94.2817   48.7776  267.4988 C   0  0  0  0  0  0  0  0  0  0  0  0
   95.5685   48.9601  267.9272 N   0  0  0  0  0  0  0  0  0  0  0  0
   96.4515   47.9520  267.7392 C   0  0  0  0  0  0  0  0  0  0  0  0
   96.0722   46.7442  267.1750 C   0  0  0  0  0  0  0  0  0  0  0  0
   94.7966   46.5286  266.7520 N   0  0  0  0  0  0  0  0  0  0  0  0
   93.6558   51.0878  268.3201 C   0  0  0  0  0  0  0  0  0  0  0  0
   93.1945   51.4070  269.6071 C   0  0  0  0  0  0  0  0  0  0  0  0
   93.5639   52.6003  270.2244 C   0  0  0  0  0  0  0  0  0  0  0  0
   94.4027   52.0077  267.6073 C   0  0  0  0  0  0  0  0  0  0  0  0
   90.2756   48.1331  266.3189 N   0  0  0  0  0  0  0  0  0  0  0  0
   89.7176   47.3508  265.2916 C   0  0  0  0  0  0  0  0  0  0  0  0
   90.4208   47.1280  264.0996 C   0  0  0  0  0  0  0  0  0  0  0  0
   89.9177   46.4358  263.0468 N   0  0  0  0  0  0  0  0  0  0  0  0
   88.6627   45.9387  263.1665 C   0  0  0  0  0  0  0  0  0  0  0  0
   87.8896   46.0967  264.3155 C   0  0  0  0  0  0  0  0  0  0  0  0
   88.4252   46.8051  265.3987 C   0  0  0  0  0  0  0  0  0  0  0  0
   87.4830   46.8956  266.9271 S   0  0  2  0  0  0  0  0  0  0  0  0
   86.1384   46.3667  266.6674 O   0  0  0  0  0  0  0  0  0  0  0  0
   87.6481   48.2411  267.4789 O   0  0  0  0  0  0  0  0  0  0  0  0
   88.3835   45.6760  268.0451 C   0  0  2  0  0  0  0  0  0  0  0  0
   94.8437   53.1680  268.2336 C   0  0  0  0  0  0  0  0  0  0  0  0
   94.4351   53.4640  269.5551 C   0  0  0  0  0  0  0  0  0  0  0  0
   95.0572   54.7232  269.8834 C   0  0  0  0  0  0  0  0  0  0  0  0
   95.8059   55.0981  268.7878 C   0  0  0  0  0  0  0  0  0  0  0  0
   95.6711   54.1866  267.7804 N   0  0  0  0  0  0  0  0  0  0  0  0
   96.2759   54.2622  266.4504 C   0  0  2  0  0  0  0  0  0  0  0  0
   95.8825   55.5115  265.6159 C   0  0  2  0  0  0  0  0  0  0  0  0
   95.3763   56.7629  266.3642 C   0  0  2  0  0  0  0  0  0  0  0  0
   92.2891   46.4042  266.0275 H   0  0  0  0  0  0  0  0  0  0  0  0
   91.2251   50.2934  267.4554 H   0  0  0  0  0  0  0  0  0  0  0  0
   97.4710   48.1402  268.0447 H   0  0  0  0  0  0  0  0  0  0  0  0
   96.7729   45.9434  267.0197 H   0  0  0  0  0  0  0  0  0  0  0  0
   92.5403   50.7211  270.1195 H   0  0  0  0  0  0  0  0  0  0  0  0
   93.1823   52.8486  271.2105 H   0  0  0  0  0  0  0  0  0  0  0  0
   94.6648   51.8036  266.5872 H   0  0  0  0  0  0  0  0  0  0  0  0
   89.5894   48.6242  266.8810 H   0  0  0  0  0  0  0  0  0  0  0  0
   91.4232   47.5028  263.9711 H   0  0  0  0  0  0  0  0  0  0  0  0
   88.2782   45.3848  262.3238 H   0  0  0  0  0  0  0  0  0  0  0  0
   86.9026   45.6563  264.3619 H   0  0  0  0  0  0  0  0  0  0  0  0
   87.8704   45.6353  269.0044 H   0  0  0  0  0  0  0  0  0  0  0  0
   89.4106   46.0123  268.1808 H   0  0  0  0  0  0  0  0  0  0  0  0
   88.3655   44.6919  267.5793 H   0  0  0  0  0  0  0  0  0  0  0  0
   94.9452   55.2805  270.7812 H   0  0  0  0  0  0  0  0  0  0  0  0
   96.4175   55.9814  268.6378 H   0  0  0  0  0  0  0  0  0  0  0  0
   96.0255   53.3503  265.8968 H   0  0  0  0  0  0  0  0  0  0  0  0
   97.3572   54.2240  266.5870 H   0  0  0  0  0  0  0  0  0  0  0  0
   95.1109   55.2335  264.9043 H   0  0  0  0  0  0  0  0  0  0  0  0
   96.7531   55.7637  265.0323 H   0  0  0  0  0  0  0  0  0  0  0  0
   95.0677   57.5501  265.6917 H   0  0  0  0  0  0  0  0  0  0  0  0
   96.1444   57.2314  266.9417 H   0  0  0  0  0  0  0  0  0  0  0  0
   94.5560   56.5192  267.0291 H   0  0  0  0  0  0  0  0  0  0  0  0
  1  4  1  0
  1  6  2  0
  1 11  1  0
  2  3  1  0
  2  5  2  0
  2 34  1  0
  3  4  2  0
  3 15  1  0
  4 35  1  0
  5  6  1  0
  5 10  1  0
  6  7  1  0
  7  8  2  0
  8  9  1  0
  8 36  1  0
  9 10  2  0
  9 37  1  0
 11 12  2  0
 11 14  1  0
 12 13  1  0
 12 38  1  0
 13 27  2  0
 13 39  1  0
 14 26  2  0
 14 40  1  0
 15 16  1  0
 15 41  1  0
 16 17  2  0
 16 21  1  0
 17 18  1  0
 17 42  1  0
 18 19  2  0
 19 20  1  0
 19 43  1  0
 20 21  2  0
 20 44  1  0
 22 21  1  6
 22 23  2  0
 22 24  2  0
 22 25  1  0
 25 45  1  1
 25 46  1  0
 25 47  1  0
 26 27  1  0
 26 30  1  0
 27 28  1  0
 28 29  2  0
 28 48  1  0
 29 30  1  0
 29 49  1  0
 30 31  1  0
 31 32  1  0
 31 50  1  6
 31 51  1  0
 32 33  1  0
 32 52  1  6
 32 53  1  0
 33 54  1  6
 33 55  1  0
 33 56  1  0
M  END
