31 flip c
     RDKit          3D

 48 52  0  0  1  0  0  0  0  0999 V2000
   90.2734   48.1373  266.3119 N   0  0  0  0  0  0  0  0  0  0  0  0
   91.6117   48.3398  266.6726 C   0  0  0  0  0  0  0  0  0  0  0  0
   91.9712   49.5358  267.2869 C   0  0  0  0  0  0  0  0  0  0  0  0
   93.2859   49.8045  267.6861 C   0  0  0  0  0  0  0  0  0  0  0  0
   92.5671   47.3483  266.4685 C   0  0  0  0  0  0  0  0  0  0  0  0
   93.8944   47.5452  266.9039 C   0  0  0  0  0  0  0  0  0  0  0  0
   94.2720   48.7853  267.5093 C   0  0  0  0  0  0  0  0  0  0  0  0
   95.5613   48.9672  267.9330 N   0  0  0  0  0  0  0  0  0  0  0  0
   96.4474   47.9577  267.7413 C   0  0  0  0  0  0  0  0  0  0  0  0
   96.0603   46.7471  267.1804 C   0  0  0  0  0  0  0  0  0  0  0  0
   94.7948   46.5347  266.7539 N   0  0  0  0  0  0  0  0  0  0  0  0
   93.5898   51.1081  268.3324 C   0  0  0  0  0  0  0  0  0  0  0  0
   92.8890   51.5230  269.4703 C   0  0  0  0  0  0  0  0  0  0  0  0
   93.1666   52.7362  270.1016 C   0  0  0  0  0  0  0  0  0  0  0  0
   94.5838   51.9138  267.7723 C   0  0  0  0  0  0  0  0  0  0  0  0
   95.7034   54.1630  268.0150 N   0  0  0  0  0  0  0  0  0  0  0  0
   94.8422   53.1441  268.3778 C   0  0  0  0  0  0  0  0  0  0  0  0
   94.1720   53.5545  269.5651 C   0  0  0  0  0  0  0  0  0  0  0  0
   94.7359   54.8155  269.9296 C   0  0  0  0  0  0  0  0  0  0  0  0
   95.5974   55.1801  268.9291 C   0  0  0  0  0  0  0  0  0  0  0  0
   96.5780   54.1653  266.8567 C   0  0  2  0  0  0  0  0  0  0  0  0
   88.3927   46.9035  265.3619 C   0  0  0  0  0  0  0  0  0  0  0  0
   89.7187   47.3508  265.2862 C   0  0  0  0  0  0  0  0  0  0  0  0
   90.4979   46.9513  264.1833 C   0  0  0  0  0  0  0  0  0  0  0  0
   89.9086   46.1092  263.2221 C   0  0  0  0  0  0  0  0  0  0  0  0
   88.5852   45.7023  263.3911 C   0  0  0  0  0  0  0  0  0  0  0  0
   87.8216   46.0878  264.4419 N   0  0  0  0  0  0  0  0  0  0  0  0
   91.8033   47.4084  264.0967 O   0  0  0  0  0  0  0  0  0  0  0  0
   92.6924   46.7816  263.1728 C   0  0  2  0  0  0  0  0  0  0  0  0
   89.5868   48.6125  266.8810 H   0  0  0  0  0  0  0  0  0  0  0  0
   91.2113   50.2874  267.4491 H   0  0  0  0  0  0  0  0  0  0  0  0
   92.2845   46.4012  266.0294 H   0  0  0  0  0  0  0  0  0  0  0  0
   97.4673   48.1422  268.0436 H   0  0  0  0  0  0  0  0  0  0  0  0
   96.7683   45.9465  267.0190 H   0  0  0  0  0  0  0  0  0  0  0  0
   92.1246   50.8801  269.8850 H   0  0  0  0  0  0  0  0  0  0  0  0
   92.6157   53.0236  270.9882 H   0  0  0  0  0  0  0  0  0  0  0  0
   95.1169   51.6082  266.8828 H   0  0  0  0  0  0  0  0  0  0  0  0
   94.4838   55.4227  270.7835 H   0  0  0  0  0  0  0  0  0  0  0  0
   96.1711   56.0860  268.8080 H   0  0  0  0  0  0  0  0  0  0  0  0
   95.9838   54.0581  265.9495 H   0  0  0  0  0  0  0  0  0  0  0  0
   97.2680   53.3259  266.9350 H   0  0  0  0  0  0  0  0  0  0  0  0
   97.1471   55.0933  266.8048 H   0  0  0  0  0  0  0  0  0  0  0  0
   87.7623   47.1949  266.1858 H   0  0  0  0  0  0  0  0  0  0  0  0
   90.4497   45.7675  262.3514 H   0  0  0  0  0  0  0  0  0  0  0  0
   88.1158   45.0543  262.6659 H   0  0  0  0  0  0  0  0  0  0  0  0
   93.6592   47.2821  263.2221 H   0  0  0  0  0  0  0  0  0  0  0  0
   92.3355   46.8601  262.1435 H   0  0  0  0  0  0  0  0  0  0  0  0
   92.8644   45.7305  263.4074 H   0  0  0  0  0  0  0  0  0  0  0  0
  1  2  1  0
  1 23  1  0
  1 30  1  0
  2  3  2  0
  2  5  1  0
  3  4  1  0
  3 31  1  0
  4  7  2  0
  4 12  1  0
  5  6  2  0
  5 32  1  0
  6  7  1  0
  6 11  1  0
  7  8  1  0
  8  9  2  0
  9 10  1  0
  9 33  1  0
 10 11  2  0
 10 34  1  0
 12 13  2  0
 12 15  1  0
 13 14  1  0
 13 35  1  0
 14 18  2  0
 14 36  1  0
 15 17  2  0
 15 37  1  0
 16 17  1  0
 16 20  1  0
 16 21  1  0
 17 18  1  0
 18 19  1  0
 19 20  2  0
 19 38  1  0
 20 39  1  0
 21 40  1  6
 21 41  1  0
 21 42  1  0
 22 23  2  0
 22 27  1  0
 22 43  1  0
 23 24  1  0
 24 25  2  0
 24 28  1  0
 25 26  1  0
 25 44  1  0
 26 27  2  0
 26 45  1  0
 28 29  1  0
 29 46  1  6
 29 47  1  0
 29 48  1  0
M  END
