26 flip b
     RDKit          3D

 49 53  0  0  1  0  0  0  0  0999 V2000
   92.5604   47.3400  266.4645 C   0  0  0  0  0  0  0  0  0  0  0  0
   91.6033   48.3329  266.6623 C   0  0  0  0  0  0  0  0  0  0  0  0
   91.9663   49.5284  267.2832 C   0  0  0  0  0  0  0  0  0  0  0  0
   93.2809   49.8044  267.6816 C   0  0  0  0  0  0  0  0  0  0  0  0
   93.8899   47.5440  266.9028 C   0  0  0  0  0  0  0  0  0  0  0  0
   94.2681   48.7863  267.5062 C   0  0  0  0  0  0  0  0  0  0  0  0
   95.5594   48.9658  267.9286 N   0  0  0  0  0  0  0  0  0  0  0  0
   96.4477   47.9579  267.7347 C   0  0  0  0  0  0  0  0  0  0  0  0
   96.0603   46.7470  267.1752 C   0  0  0  0  0  0  0  0  0  0  0  0
   94.7960   46.5358  266.7511 N   0  0  0  0  0  0  0  0  0  0  0  0
   93.5929   51.1046  268.3258 C   0  0  0  0  0  0  0  0  0  0  0  0
   90.2555   48.1502  266.3103 N   0  0  0  0  0  0  0  0  0  0  0  0
   92.8919   51.5307  269.4656 C   0  0  0  0  0  0  0  0  0  0  0  0
   93.1798   52.7422  270.1016 C   0  0  0  0  0  0  0  0  0  0  0  0
   94.5873   51.8959  267.7541 C   0  0  0  0  0  0  0  0  0  0  0  0
   94.8470   53.1158  268.3743 C   0  0  0  0  0  0  0  0  0  0  0  0
   94.1945   53.5359  269.5652 C   0  0  0  0  0  0  0  0  0  0  0  0
   94.7732   54.7966  269.9306 C   0  0  0  0  0  0  0  0  0  0  0  0
   95.7096   55.0904  268.9709 C   0  0  0  0  0  0  0  0  0  0  0  0
   95.7160   54.1221  268.0113 N   0  0  0  0  0  0  0  0  0  0  0  0
   96.5355   54.1741  266.8061 C   0  0  2  0  0  0  0  0  0  0  0  0
   89.6226   47.3651  265.3242 C   0  0  0  0  0  0  0  0  0  0  0  0
   90.2797   46.9947  264.1194 C   0  0  0  0  0  0  0  0  0  0  0  0
   89.5989   46.1556  263.2170 C   0  0  0  0  0  0  0  0  0  0  0  0
   88.3147   45.6956  263.4772 C   0  0  0  0  0  0  0  0  0  0  0  0
   87.6754   46.0640  264.6524 C   0  0  0  0  0  0  0  0  0  0  0  0
   88.3266   46.8869  265.5693 C   0  0  0  0  0  0  0  0  0  0  0  0
   91.6871   47.4507  263.7709 C   0  0  0  0  0  0  0  0  0  0  0  0
   92.4774   47.8617  264.6134 O   0  0  0  0  0  0  0  0  0  0  0  0
   92.0528   47.3956  262.4905 N   0  0  0  0  0  0  0  0  0  0  0  0
   92.2719   46.3892  266.0366 H   0  0  0  0  0  0  0  0  0  0  0  0
   91.2102   50.2834  267.4508 H   0  0  0  0  0  0  0  0  0  0  0  0
   97.4642   48.1404  268.0445 H   0  0  0  0  0  0  0  0  0  0  0  0
   96.7697   45.9473  267.0116 H   0  0  0  0  0  0  0  0  0  0  0  0
   89.5894   48.6322  266.9039 H   0  0  0  0  0  0  0  0  0  0  0  0
   92.1255   50.8850  269.8853 H   0  0  0  0  0  0  0  0  0  0  0  0
   92.6364   53.0274  270.9943 H   0  0  0  0  0  0  0  0  0  0  0  0
   95.1350   51.5905  266.8631 H   0  0  0  0  0  0  0  0  0  0  0  0
   94.5097   55.4062  270.7755 H   0  0  0  0  0  0  0  0  0  0  0  0
   96.3526   55.9465  268.8509 H   0  0  0  0  0  0  0  0  0  0  0  0
   97.1419   55.0873  266.7471 H   0  0  0  0  0  0  0  0  0  0  0  0
   95.8952   54.1501  265.9259 H   0  0  0  0  0  0  0  0  0  0  0  0
   97.1985   53.3109  266.7648 H   0  0  0  0  0  0  0  0  0  0  0  0
   90.0595   45.8310  262.2934 H   0  0  0  0  0  0  0  0  0  0  0  0
   87.8230   45.0585  262.7558 H   0  0  0  0  0  0  0  0  0  0  0  0
   86.6776   45.7019  264.8463 H   0  0  0  0  0  0  0  0  0  0  0  0
   87.8104   47.1411  266.4807 H   0  0  0  0  0  0  0  0  0  0  0  0
   92.9721   47.7030  262.2172 H   0  0  0  0  0  0  0  0  0  0  0  0
   91.3999   47.0730  261.7927 H   0  0  0  0  0  0  0  0  0  0  0  0
  1  2  2  0
  1  5  1  0
  1 31  1  0
  2  3  1  0
  2 12  1  0
  3  4  2  0
  3 32  1  0
  4  6  1  0
  4 11  1  0
  5  6  1  0
  5 10  2  0
  6  7  2  0
  7  8  1  0
  8  9  2  0
  8 33  1  0
  9 10  1  0
  9 34  1  0
 11 13  2  0
 11 15  1  0
 12 22  1  0
 12 35  1  0
 13 14  1  0
 13 36  1  0
 14 17  2  0
 14 37  1  0
 15 16  2  0
 15 38  1  0
 16 17  1  0
 16 20  1  0
 17 18  1  0
 18 19  2  0
 18 39  1  0
 19 20  1  0
 19 40  1  0
 20 21  1  0
 21 41  1  1
 21 42  1  0
 21 43  1  0
 22 23  2  0
 22 27  1  0
 23 24  1  0
 23 28  1  0
 24 25  2  0
 24 44  1  0
 25 26  1  0
 25 45  1  0
 26 27  2  0
 26 46  1  0
 27 47  1  0
 28 29  2  0
 28 30  1  0
 30 48  1  0
 30 49  1  0
M  END
