23 flip c
     RDKit          3D

 44 48  0  0  1  0  0  0  0  0999 V2000
   90.2666   48.1240  266.3159 N   0  0  0  0  0  0  0  0  0  0  0  0
   91.6053   48.3302  266.6785 C   0  0  0  0  0  0  0  0  0  0  0  0
   91.9655   49.5283  267.2824 C   0  0  0  0  0  0  0  0  0  0  0  0
   93.2798   49.7880  267.6955 C   0  0  0  0  0  0  0  0  0  0  0  0
   94.2675   48.7692  267.5233 C   0  0  0  0  0  0  0  0  0  0  0  0
   93.8901   47.5291  266.9246 C   0  0  0  0  0  0  0  0  0  0  0  0
   92.5604   47.3362  266.4923 C   0  0  0  0  0  0  0  0  0  0  0  0
   93.5816   51.0865  268.3410 C   0  0  0  0  0  0  0  0  0  0  0  0
   92.9309   51.4507  269.5207 C   0  0  0  0  0  0  0  0  0  0  0  0
   93.2103   52.6554  270.1547 C   0  0  0  0  0  0  0  0  0  0  0  0
   94.1735   53.5184  269.6043 C   0  0  0  0  0  0  0  0  0  0  0  0
   94.7963   53.1630  268.3736 C   0  0  0  0  0  0  0  0  0  0  0  0
   94.5160   51.9403  267.7509 C   0  0  0  0  0  0  0  0  0  0  0  0
   94.7175   54.7656  269.9761 C   0  0  0  0  0  0  0  0  0  0  0  0
   95.5308   55.1944  268.9725 C   0  0  0  0  0  0  0  0  0  0  0  0
   95.5995   54.2292  268.0103 N   0  0  0  0  0  0  0  0  0  0  0  0
   96.3573   54.3664  266.7734 C   0  0  2  0  0  0  0  0  0  0  0  0
   94.7937   46.5216  266.7799 N   0  0  0  0  0  0  0  0  0  0  0  0
   96.0626   46.7418  267.2021 C   0  0  0  0  0  0  0  0  0  0  0  0
   96.4462   47.9561  267.7601 C   0  0  0  0  0  0  0  0  0  0  0  0
   95.5561   48.9613  267.9464 N   0  0  0  0  0  0  0  0  0  0  0  0
   89.7286   47.3554  265.2768 C   0  0  0  0  0  0  0  0  0  0  0  0
   88.4794   46.7331  265.3909 C   0  0  0  0  0  0  0  0  0  0  0  0
   87.9535   45.9354  264.4230 N   0  0  0  0  0  0  0  0  0  0  0  0
   88.6835   45.7595  263.2909 C   0  0  0  0  0  0  0  0  0  0  0  0
   89.9325   46.3485  263.0920 C   0  0  0  0  0  0  0  0  0  0  0  0
   90.4667   47.1448  264.1071 C   0  0  0  0  0  0  0  0  0  0  0  0
   89.5840   48.5534  266.9215 H   0  0  0  0  0  0  0  0  0  0  0  0
   91.2103   50.2872  267.4331 H   0  0  0  0  0  0  0  0  0  0  0  0
   92.2824   46.3904  266.0527 H   0  0  0  0  0  0  0  0  0  0  0  0
   92.1973   50.7883  269.9564 H   0  0  0  0  0  0  0  0  0  0  0  0
   92.7010   52.9186  271.0692 H   0  0  0  0  0  0  0  0  0  0  0  0
   94.9896   51.6778  266.8279 H   0  0  0  0  0  0  0  0  0  0  0  0
   94.4738   55.3501  270.8639 H   0  0  0  0  0  0  0  0  0  0  0  0
   96.0897   56.1172  268.8628 H   0  0  0  0  0  0  0  0  0  0  0  0
   97.0662   53.5532  266.6763 H   0  0  0  0  0  0  0  0  0  0  0  0
   96.8915   55.3157  266.7827 H   0  0  0  0  0  0  0  0  0  0  0  0
   95.6700   54.3544  265.9340 H   0  0  0  0  0  0  0  0  0  0  0  0
   96.7703   45.9439  267.0454 H   0  0  0  0  0  0  0  0  0  0  0  0
   97.4696   48.1484  268.0483 H   0  0  0  0  0  0  0  0  0  0  0  0
   87.8859   46.8536  266.2806 H   0  0  0  0  0  0  0  0  0  0  0  0
   88.2503   45.1323  262.5276 H   0  0  0  0  0  0  0  0  0  0  0  0
   90.4741   46.1994  262.1683 H   0  0  0  0  0  0  0  0  0  0  0  0
   91.4336   47.6092  263.9749 H   0  0  0  0  0  0  0  0  0  0  0  0
  1  2  1  0
  1 22  1  0
  1 28  1  0
  2  3  1  0
  2  7  2  0
  3  4  2  0
  3 29  1  0
  4  5  1  0
  4  8  1  0
  5 21  2  0
  5  6  1  0
  6  7  1  0
  6 18  2  0
  7 30  1  0
  8  9  2  0
  8 13  1  0
  9 10  1  0
  9 31  1  0
 10 11  2  0
 10 32  1  0
 11 12  1  0
 11 14  1  0
 12 13  2  0
 12 16  1  0
 13 33  1  0
 14 15  2  0
 14 34  1  0
 15 16  1  0
 15 35  1  0
 16 17  1  0
 17 36  1  6
 17 37  1  0
 17 38  1  0
 18 19  1  0
 19 20  2  0
 19 39  1  0
 20 21  1  0
 20 40  1  0
 22 23  2  0
 22 27  1  0
 23 24  1  0
 23 41  1  0
 24 25  2  0
 25 26  1  0
 25 42  1  0
 26 27  2  0
 26 43  1  0
 27 44  1  0
M  END
