70 flip
     RDKit          3D

 49 53  0  0  1  0  0  0  0  0999 V2000
   92.5684   47.3375  266.4935 C   0  0  0  0  0  0  0  0  0  0  0  0
   91.6136   48.3329  266.6765 C   0  0  0  0  0  0  0  0  0  0  0  0
   91.9733   49.5322  267.2840 C   0  0  0  0  0  0  0  0  0  0  0  0
   93.2855   49.7940  267.6992 C   0  0  0  0  0  0  0  0  0  0  0  0
   93.8953   47.5338  266.9323 C   0  0  0  0  0  0  0  0  0  0  0  0
   94.2739   48.7755  267.5320 C   0  0  0  0  0  0  0  0  0  0  0  0
   95.5614   48.9635  267.9566 N   0  0  0  0  0  0  0  0  0  0  0  0
   96.4518   47.9561  267.7687 C   0  0  0  0  0  0  0  0  0  0  0  0
   96.0633   46.7420  267.2148 C   0  0  0  0  0  0  0  0  0  0  0  0
   94.7981   46.5237  266.7912 N   0  0  0  0  0  0  0  0  0  0  0  0
   93.5930   51.0971  268.3380 C   0  0  0  0  0  0  0  0  0  0  0  0
   92.9267   51.4866  269.5101 C   0  0  0  0  0  0  0  0  0  0  0  0
   93.2166   52.6895  270.1521 C   0  0  0  0  0  0  0  0  0  0  0  0
   94.5460   51.9418  267.7593 C   0  0  0  0  0  0  0  0  0  0  0  0
   94.8457   53.1704  268.3642 C   0  0  0  0  0  0  0  0  0  0  0  0
   94.1996   53.4952  269.5744 C   0  0  0  0  0  0  0  0  0  0  0  0
   94.6290   54.6974  270.0482 O   0  0  0  0  0  0  0  0  0  0  0  0
   95.5089   55.1656  269.1207 C   0  0  0  0  0  0  0  0  0  0  0  0
   95.6752   54.2916  268.0552 C   0  0  0  0  0  0  0  0  0  0  0  0
   90.2757   48.1225  266.3106 N   0  0  0  0  0  0  0  0  0  0  0  0
   96.5126   54.4702  266.8125 C   0  0  2  0  0  0  0  0  0  0  0  0
   89.7186   47.3442  265.2867 C   0  0  0  0  0  0  0  0  0  0  0  0
   88.4245   46.7994  265.3959 C   0  0  0  0  0  0  0  0  0  0  0  0
   87.8911   46.0836  264.3198 C   0  0  0  0  0  0  0  0  0  0  0  0
   88.6587   45.9347  263.1648 C   0  0  0  0  0  0  0  0  0  0  0  0
   89.9086   46.4447  263.0371 N   0  0  0  0  0  0  0  0  0  0  0  0
   90.4154   47.1288  264.0910 C   0  0  0  0  0  0  0  0  0  0  0  0
   87.4827   46.9058  266.9203 S   0  0  2  0  0  0  0  0  0  0  0  0
   86.1267   46.4095  266.6609 O   0  0  0  0  0  0  0  0  0  0  0  0
   87.6798   48.2451  267.4815 O   0  0  0  0  0  0  0  0  0  0  0  0
   88.3687   45.6595  268.0154 C   0  0  2  0  0  0  0  0  0  0  0  0
   92.2904   46.3890  266.0570 H   0  0  0  0  0  0  0  0  0  0  0  0
   91.2163   50.2898  267.4341 H   0  0  0  0  0  0  0  0  0  0  0  0
   97.4746   48.1493  268.0557 H   0  0  0  0  0  0  0  0  0  0  0  0
   96.7729   45.9425  267.0563 H   0  0  0  0  0  0  0  0  0  0  0  0
   92.1773   50.8350  269.9368 H   0  0  0  0  0  0  0  0  0  0  0  0
   92.7070   52.9838  271.0561 H   0  0  0  0  0  0  0  0  0  0  0  0
   95.0371   51.6696  266.8369 H   0  0  0  0  0  0  0  0  0  0  0  0
   95.9213   56.1468  269.3333 H   0  0  0  0  0  0  0  0  0  0  0  0
   89.5785   48.5935  266.8778 H   0  0  0  0  0  0  0  0  0  0  0  0
   97.2582   53.6822  266.7147 H   0  0  0  0  0  0  0  0  0  0  0  0
   97.0434   55.4229  266.8206 H   0  0  0  0  0  0  0  0  0  0  0  0
   95.8918   54.4547  265.9152 H   0  0  0  0  0  0  0  0  0  0  0  0
   86.9075   45.6346  264.3807 H   0  0  0  0  0  0  0  0  0  0  0  0
   88.2723   45.3818  262.3229 H   0  0  0  0  0  0  0  0  0  0  0  0
   91.4056   47.5358  263.9631 H   0  0  0  0  0  0  0  0  0  0  0  0
   87.8495   45.6002  268.9694 H   0  0  0  0  0  0  0  0  0  0  0  0
   89.3946   45.9969  268.1579 H   0  0  0  0  0  0  0  0  0  0  0  0
   88.3540   44.6896  267.5193 H   0  0  0  0  0  0  0  0  0  0  0  0
  1  2  2  0
  1  5  1  0
  1 32  1  0
  2  3  1  0
  2 20  1  0
  3  4  2  0
  3 33  1  0
  4  6  1  0
  4 11  1  0
  5  6  1  0
  5 10  2  0
  6  7  2  0
  7  8  1  0
  8  9  2  0
  8 34  1  0
  9 10  1  0
  9 35  1  0
 11 12  2  0
 11 14  1  0
 12 13  1  0
 12 36  1  0
 13 16  2  0
 13 37  1  0
 14 15  2  0
 14 38  1  0
 15 16  1  0
 15 19  1  0
 16 17  1  0
 17 18  1  0
 18 19  2  0
 18 39  1  0
 19 21  1  0
 20 22  1  0
 20 40  1  0
 21 41  1  6
 21 42  1  0
 21 43  1  0
 22 23  2  0
 22 27  1  0
 23 24  1  0
 28 23  1  6
 24 25  2  0
 24 44  1  0
 25 26  1  0
 25 45  1  0
 26 27  2  0
 27 46  1  0
 28 29  2  0
 28 30  2  0
 28 31  1  0
 31 47  1  1
 31 48  1  0
 31 49  1  0
M  END
