54 flip
     RDKit          3D

 56 60  0  0  1  0  0  0  0  0999 V2000
   91.6126   48.3353  266.6703 C   0  0  0  0  0  0  0  0  0  0  0  0
   91.9733   49.5324  267.2808 C   0  0  0  0  0  0  0  0  0  0  0  0
   93.2894   49.7956  267.6797 C   0  0  0  0  0  0  0  0  0  0  0  0
   92.5692   47.3436  266.4692 C   0  0  0  0  0  0  0  0  0  0  0  0
   93.8975   47.5406  266.9051 C   0  0  0  0  0  0  0  0  0  0  0  0
   94.2749   48.7798  267.5080 C   0  0  0  0  0  0  0  0  0  0  0  0
   95.5631   48.9638  267.9368 N   0  0  0  0  0  0  0  0  0  0  0  0
   96.4503   47.9554  267.7480 C   0  0  0  0  0  0  0  0  0  0  0  0
   96.0641   46.7442  267.1890 C   0  0  0  0  0  0  0  0  0  0  0  0
   94.7980   46.5299  266.7611 N   0  0  0  0  0  0  0  0  0  0  0  0
   90.2745   48.1250  266.3159 N   0  0  0  0  0  0  0  0  0  0  0  0
   93.6036   51.0937  268.3225 C   0  0  0  0  0  0  0  0  0  0  0  0
   93.0130   51.4594  269.5315 C   0  0  0  0  0  0  0  0  0  0  0  0
   93.3110   52.6661  270.1646 C   0  0  0  0  0  0  0  0  0  0  0  0
   94.4938   51.9481  267.6735 C   0  0  0  0  0  0  0  0  0  0  0  0
   94.7886   53.1601  268.2964 C   0  0  0  0  0  0  0  0  0  0  0  0
   94.2397   53.5262  269.5599 C   0  0  0  0  0  0  0  0  0  0  0  0
   94.7972   54.7699  269.8941 C   0  0  0  0  0  0  0  0  0  0  0  0
   95.6141   55.1595  268.8741 C   0  0  0  0  0  0  0  0  0  0  0  0
   95.5896   54.2044  267.8839 N   0  0  0  0  0  0  0  0  0  0  0  0
   96.3080   54.2494  266.6179 C   0  0  1  0  0  0  0  0  0  0  0  0
   95.8815   55.4465  265.7412 C   0  0  2  0  0  0  0  0  0  0  0  0
   97.8519   54.1426  266.8807 C   0  0  2  0  0  0  0  0  0  0  0  0
   89.7164   47.3465  265.2896 C   0  0  0  0  0  0  0  0  0  0  0  0
   90.4207   47.1272  264.0986 C   0  0  0  0  0  0  0  0  0  0  0  0
   89.9174   46.4367  263.0451 N   0  0  0  0  0  0  0  0  0  0  0  0
   88.6611   45.9399  263.1652 C   0  0  0  0  0  0  0  0  0  0  0  0
   87.8879   46.0951  264.3148 C   0  0  0  0  0  0  0  0  0  0  0  0
   88.4239   46.8032  265.3975 C   0  0  0  0  0  0  0  0  0  0  0  0
   87.4822   46.8958  266.9257 S   0  0  2  0  0  0  0  0  0  0  0  0
   86.1360   46.3755  266.6687 O   0  0  0  0  0  0  0  0  0  0  0  0
   87.6578   48.2428  267.4781 O   0  0  0  0  0  0  0  0  0  0  0  0
   88.3798   45.6764  268.0436 C   0  0  2  0  0  0  0  0  0  0  0  0
   91.2145   50.2854  267.4442 H   0  0  0  0  0  0  0  0  0  0  0  0
   92.2845   46.3951  266.0360 H   0  0  0  0  0  0  0  0  0  0  0  0
   97.4713   48.1452  268.0452 H   0  0  0  0  0  0  0  0  0  0  0  0
   96.7707   45.9444  267.0243 H   0  0  0  0  0  0  0  0  0  0  0  0
   89.5780   48.6109  266.8719 H   0  0  0  0  0  0  0  0  0  0  0  0
   92.3174   50.7869  270.0081 H   0  0  0  0  0  0  0  0  0  0  0  0
   92.8483   52.9240  271.1075 H   0  0  0  0  0  0  0  0  0  0  0  0
   94.9243   51.6698  266.7224 H   0  0  0  0  0  0  0  0  0  0  0  0
   94.6143   55.3736  270.7943 H   0  0  0  0  0  0  0  0  0  0  0  0
   96.1914   56.0404  268.7320 H   0  0  0  0  0  0  0  0  0  0  0  0
   96.0189   53.3542  266.0642 H   0  0  0  0  0  0  0  0  0  0  0  0
   94.8393   55.6952  265.5648 H   0  0  0  0  0  0  0  0  0  0  0  0
   96.2804   55.2944  264.7181 H   0  0  0  0  0  0  0  0  0  0  0  0
   96.1684   56.3422  266.3043 H   0  0  0  0  0  0  0  0  0  0  0  0
   98.1144   53.2827  267.4799 H   0  0  0  0  0  0  0  0  0  0  0  0
   98.3896   54.8837  267.4500 H   0  0  0  0  0  0  0  0  0  0  0  0
   98.3946   54.1079  265.9434 H   0  0  0  0  0  0  0  0  0  0  0  0
   91.4171   47.5177  263.9750 H   0  0  0  0  0  0  0  0  0  0  0  0
   88.2766   45.3843  262.3234 H   0  0  0  0  0  0  0  0  0  0  0  0
   86.9020   45.6504  264.3737 H   0  0  0  0  0  0  0  0  0  0  0  0
   87.8636   45.6303  269.0016 H   0  0  0  0  0  0  0  0  0  0  0  0
   89.4070   46.0138  268.1769 H   0  0  0  0  0  0  0  0  0  0  0  0
   88.3633   44.6962  267.5702 H   0  0  0  0  0  0  0  0  0  0  0  0
  1  2  2  0
  1  4  1  0
  1 11  1  0
  2  3  1  0
  2 34  1  0
  3  6  2  0
  3 12  1  0
  4  5  2  0
  4 35  1  0
  5  6  1  0
  5 10  1  0
  6  7  1  0
  7  8  2  0
  8  9  1  0
  8 36  1  0
  9 10  2  0
  9 37  1  0
 11 24  1  0
 11 38  1  0
 12 13  2  0
 12 15  1  0
 13 14  1  0
 13 39  1  0
 14 17  2  0
 14 40  1  0
 15 16  2  0
 15 41  1  0
 16 17  1  0
 16 20  1  0
 17 18  1  0
 18 19  2  0
 18 42  1  0
 19 20  1  0
 19 43  1  0
 20 21  1  0
 21 22  1  0
 21 23  1  0
 21 44  1  6
 22 45  1  6
 22 46  1  0
 22 47  1  0
 23 48  1  1
 23 49  1  0
 23 50  1  0
 24 25  2  0
 24 29  1  0
 25 26  1  0
 25 51  1  0
 26 27  2  0
 27 28  1  0
 27 52  1  0
 28 29  2  0
 28 53  1  0
 30 29  1  6
 30 31  2  0
 30 32  2  0
 30 33  1  0
 33 54  1  1
 33 55  1  0
 33 56  1  0
M  END
