33 flip b
     RDKit          3D

 45 49  0  0  1  0  0  0  0  0999 V2000
   90.2783   48.1451  266.3142 N   0  0  0  0  0  0  0  0  0  0  0  0
   91.6169   48.3446  266.6738 C   0  0  0  0  0  0  0  0  0  0  0  0
   91.9745   49.5378  267.2907 C   0  0  0  0  0  0  0  0  0  0  0  0
   93.2869   49.8041  267.6905 C   0  0  0  0  0  0  0  0  0  0  0  0
   94.2733   48.7861  267.5115 C   0  0  0  0  0  0  0  0  0  0  0  0
   93.8958   47.5470  266.9048 C   0  0  0  0  0  0  0  0  0  0  0  0
   92.5700   47.3545  266.4704 C   0  0  0  0  0  0  0  0  0  0  0  0
   93.5906   51.1033  268.3373 C   0  0  0  0  0  0  0  0  0  0  0  0
   94.5701   51.9485  267.7930 C   0  0  0  0  0  0  0  0  0  0  0  0
   94.8766   53.1828  268.3625 C   0  0  0  0  0  0  0  0  0  0  0  0
   94.1744   53.5766  269.5033 C   0  0  0  0  0  0  0  0  0  0  0  0
   93.2113   52.6777  270.0810 C   0  0  0  0  0  0  0  0  0  0  0  0
   92.8959   51.4563  269.4914 C   0  0  0  0  0  0  0  0  0  0  0  0
   94.1946   54.7419  270.3240 C   0  0  0  0  0  0  0  0  0  0  0  0
   93.3205   54.5041  271.3412 C   0  0  0  0  0  0  0  0  0  0  0  0
   92.7610   53.2794  271.2415 N   0  0  0  0  0  0  0  0  0  0  0  0
   94.7935   46.5354  266.7547 N   0  0  0  0  0  0  0  0  0  0  0  0
   96.0594   46.7465  267.1790 C   0  0  0  0  0  0  0  0  0  0  0  0
   96.4464   47.9594  267.7361 C   0  0  0  0  0  0  0  0  0  0  0  0
   95.5618   48.9678  267.9325 N   0  0  0  0  0  0  0  0  0  0  0  0
   91.8513   52.7306  272.2454 C   0  0  2  0  0  0  0  0  0  0  0  0
   89.7124   47.3504  265.2983 C   0  0  0  0  0  0  0  0  0  0  0  0
   90.4202   47.0081  264.1266 C   0  0  0  0  0  0  0  0  0  0  0  0
   89.8222   46.1559  263.1926 C   0  0  0  0  0  0  0  0  0  0  0  0
   88.5471   45.6637  263.4541 C   0  0  0  0  0  0  0  0  0  0  0  0
   87.8422   45.9740  264.5684 N   0  0  0  0  0  0  0  0  0  0  0  0
   88.4299   46.8103  265.4600 C   0  0  0  0  0  0  0  0  0  0  0  0
   91.7477   47.5358  263.8250 C   0  0  0  0  0  0  0  0  0  0  0  0
   92.7989   47.9554  263.5880 N   0  0  0  0  0  0  0  0  0  0  0  0
   89.6015   48.6327  266.8831 H   0  0  0  0  0  0  0  0  0  0  0  0
   91.2174   50.2910  267.4543 H   0  0  0  0  0  0  0  0  0  0  0  0
   92.2810   46.4076  266.0446 H   0  0  0  0  0  0  0  0  0  0  0  0
   95.0908   51.6545  266.8941 H   0  0  0  0  0  0  0  0  0  0  0  0
   95.6296   53.8262  267.9201 H   0  0  0  0  0  0  0  0  0  0  0  0
   92.1406   50.8044  269.9242 H   0  0  0  0  0  0  0  0  0  0  0  0
   94.7923   55.6373  270.2448 H   0  0  0  0  0  0  0  0  0  0  0  0
   93.0701   55.1130  272.1869 H   0  0  0  0  0  0  0  0  0  0  0  0
   96.7637   45.9455  267.0078 H   0  0  0  0  0  0  0  0  0  0  0  0
   97.4654   48.1560  268.0273 H   0  0  0  0  0  0  0  0  0  0  0  0
   91.7086   53.4652  273.0442 H   0  0  0  0  0  0  0  0  0  0  0  0
   92.2994   51.8408  272.6822 H   0  0  0  0  0  0  0  0  0  0  0  0
   90.8902   52.5152  271.7871 H   0  0  0  0  0  0  0  0  0  0  0  0
   90.3282   45.8819  262.2766 H   0  0  0  0  0  0  0  0  0  0  0  0
   88.0769   45.0105  262.7422 H   0  0  0  0  0  0  0  0  0  0  0  0
   87.8491   47.0400  266.3346 H   0  0  0  0  0  0  0  0  0  0  0  0
  1  2  1  0
  1 22  1  0
  1 30  1  0
  2  3  2  0
  2  7  1  0
  3  4  1  0
  3 31  1  0
  4  5  2  0
  4  8  1  0
  5 20  1  0
  5  6  1  0
  6  7  2  0
  6 17  1  0
  7 32  1  0
  8  9  2  0
  8 13  1  0
  9 10  1  0
  9 33  1  0
 10 11  2  0
 10 34  1  0
 11 14  1  0
 11 12  1  0
 12 13  2  0
 12 16  1  0
 13 35  1  0
 14 15  2  0
 14 36  1  0
 15 16  1  0
 15 37  1  0
 16 21  1  0
 17 18  2  0
 18 19  1  0
 18 38  1  0
 19 20  2  0
 19 39  1  0
 21 40  1  1
 21 41  1  0
 21 42  1  0
 22 23  1  0
 22 27  2  0
 23 24  2  0
 23 28  1  0
 24 25  1  0
 24 43  1  0
 25 26  2  0
 25 44  1  0
 26 27  1  0
 27 45  1  0
 28 29  3  0
M  END
