23 flip a
     RDKit          3D

 44 48  0  0  1  0  0  0  0  0999 V2000
   90.2666   48.1240  266.3159 N   0  0  0  0  0  0  0  0  0  0  0  0
   91.6053   48.3302  266.6785 C   0  0  0  0  0  0  0  0  0  0  0  0
   91.9655   49.5283  267.2824 C   0  0  0  0  0  0  0  0  0  0  0  0
   93.2798   49.7880  267.6955 C   0  0  0  0  0  0  0  0  0  0  0  0
   94.2675   48.7692  267.5233 C   0  0  0  0  0  0  0  0  0  0  0  0
   93.8901   47.5291  266.9246 C   0  0  0  0  0  0  0  0  0  0  0  0
   92.5604   47.3362  266.4923 C   0  0  0  0  0  0  0  0  0  0  0  0
   93.5816   51.0865  268.3410 C   0  0  0  0  0  0  0  0  0  0  0  0
   92.9127   51.4617  269.5070 C   0  0  0  0  0  0  0  0  0  0  0  0
   93.1915   52.6665  270.1410 C   0  0  0  0  0  0  0  0  0  0  0  0
   94.1725   53.5184  269.6048 C   0  0  0  0  0  0  0  0  0  0  0  0
   94.8145   53.1520  268.3873 C   0  0  0  0  0  0  0  0  0  0  0  0
   94.5344   51.9292  267.7646 C   0  0  0  0  0  0  0  0  0  0  0  0
   94.7210   54.7622  269.9813 C   0  0  0  0  0  0  0  0  0  0  0  0
   95.5565   55.1792  268.9910 C   0  0  0  0  0  0  0  0  0  0  0  0
   95.6340   54.2093  268.0343 N   0  0  0  0  0  0  0  0  0  0  0  0
   96.4155   54.3342  266.8110 C   0  0  2  0  0  0  0  0  0  0  0  0
   94.7937   46.5216  266.7799 N   0  0  0  0  0  0  0  0  0  0  0  0
   96.0626   46.7418  267.2021 C   0  0  0  0  0  0  0  0  0  0  0  0
   96.4462   47.9561  267.7601 C   0  0  0  0  0  0  0  0  0  0  0  0
   95.5561   48.9613  267.9464 N   0  0  0  0  0  0  0  0  0  0  0  0
   89.7286   47.3554  265.2768 C   0  0  0  0  0  0  0  0  0  0  0  0
   90.4324   47.1276  264.0879 C   0  0  0  0  0  0  0  0  0  0  0  0
   89.9168   46.4329  263.0385 N   0  0  0  0  0  0  0  0  0  0  0  0
   88.6627   45.9292  263.1762 C   0  0  0  0  0  0  0  0  0  0  0  0
   87.8956   46.1024  264.3286 C   0  0  0  0  0  0  0  0  0  0  0  0
   88.4329   46.8391  265.3862 C   0  0  0  0  0  0  0  0  0  0  0  0
   89.5840   48.5534  266.9215 H   0  0  0  0  0  0  0  0  0  0  0  0
   91.2103   50.2872  267.4331 H   0  0  0  0  0  0  0  0  0  0  0  0
   92.2824   46.3904  266.0527 H   0  0  0  0  0  0  0  0  0  0  0  0
   92.1653   50.8080  269.9319 H   0  0  0  0  0  0  0  0  0  0  0  0
   92.6680   52.9384  271.0449 H   0  0  0  0  0  0  0  0  0  0  0  0
   95.0225   51.6584  266.8516 H   0  0  0  0  0  0  0  0  0  0  0  0
   94.4664   55.3528  270.8620 H   0  0  0  0  0  0  0  0  0  0  0  0
   96.1257   56.0964  268.8878 H   0  0  0  0  0  0  0  0  0  0  0  0
   97.1186   53.5142  266.7303 H   0  0  0  0  0  0  0  0  0  0  0  0
   96.9581   55.2786  266.8261 H   0  0  0  0  0  0  0  0  0  0  0  0
   95.7437   54.3248  265.9591 H   0  0  0  0  0  0  0  0  0  0  0  0
   96.7703   45.9439  267.0454 H   0  0  0  0  0  0  0  0  0  0  0  0
   97.4696   48.1484  268.0483 H   0  0  0  0  0  0  0  0  0  0  0  0
   91.4251   47.5215  263.9542 H   0  0  0  0  0  0  0  0  0  0  0  0
   88.2698   45.3722  262.3401 H   0  0  0  0  0  0  0  0  0  0  0  0
   86.9082   45.6692  264.4068 H   0  0  0  0  0  0  0  0  0  0  0  0
   87.8553   46.9873  266.2876 H   0  0  0  0  0  0  0  0  0  0  0  0
  1  2  1  0
  1 22  1  0
  1 28  1  0
  2  3  1  0
  2  7  2  0
  3  4  2  0
  3 29  1  0
  4  5  1  0
  4  8  1  0
  5 21  2  0
  5  6  1  0
  6  7  1  0
  6 18  2  0
  7 30  1  0
  8  9  2  0
  8 13  1  0
  9 10  1  0
  9 31  1  0
 10 11  2  0
 10 32  1  0
 11 12  1  0
 11 14  1  0
 12 13  2  0
 12 16  1  0
 13 33  1  0
 14 15  2  0
 14 34  1  0
 15 16  1  0
 15 35  1  0
 16 17  1  0
 17 36  1  6
 17 37  1  0
 17 38  1  0
 18 19  1  0
 19 20  2  0
 19 39  1  0
 20 21  1  0
 20 40  1  0
 22 23  2  0
 22 27  1  0
 23 24  1  0
 23 41  1  0
 24 25  2  0
 25 26  1  0
 25 42  1  0
 26 27  2  0
 26 43  1  0
 27 44  1  0
M  END
