58 flip
     RDKit          3D

 48 52  0  0  1  0  0  0  0  0999 V2000
   94.8013   46.5214  266.7826 N   0  0  0  0  0  0  0  0  0  0  0  0
   95.5604   48.9616  267.9505 N   0  0  0  0  0  0  0  0  0  0  0  0
   96.4513   47.9564  267.7616 C   0  0  0  0  0  0  0  0  0  0  0  0
   96.0690   46.7404  267.2068 C   0  0  0  0  0  0  0  0  0  0  0  0
   94.2685   48.7751  267.5275 C   0  0  0  0  0  0  0  0  0  0  0  0
   93.8968   47.5294  266.9259 C   0  0  0  0  0  0  0  0  0  0  0  0
   92.5695   47.3323  266.4865 C   0  0  0  0  0  0  0  0  0  0  0  0
   91.6129   48.3253  266.6755 C   0  0  0  0  0  0  0  0  0  0  0  0
   91.9685   49.5269  267.2835 C   0  0  0  0  0  0  0  0  0  0  0  0
   93.2847   49.7945  267.6974 C   0  0  0  0  0  0  0  0  0  0  0  0
   93.5894   51.1028  268.3276 C   0  0  0  0  0  0  0  0  0  0  0  0
   90.2782   48.1195  266.3117 N   0  0  0  0  0  0  0  0  0  0  0  0
   92.9558   51.4860  269.5208 C   0  0  0  0  0  0  0  0  0  0  0  0
   93.2435   52.7211  270.1207 C   0  0  0  0  0  0  0  0  0  0  0  0
   94.5004   51.9840  267.7180 C   0  0  0  0  0  0  0  0  0  0  0  0
   94.7828   53.1982  268.3261 C   0  0  0  0  0  0  0  0  0  0  0  0
   94.1878   53.5414  269.5073 C   0  0  0  0  0  0  0  0  0  0  0  0
   94.5409   54.7853  269.9741 O   0  0  0  0  0  0  0  0  0  0  0  0
   95.5559   55.2626  269.0804 C   0  0  2  0  0  0  0  0  0  0  0  0
   95.5757   54.3811  267.8773 C   0  0  1  0  0  0  0  0  0  0  0  0
   89.7154   47.3416  265.2852 C   0  0  0  0  0  0  0  0  0  0  0  0
   90.4167   47.1271  264.0903 C   0  0  0  0  0  0  0  0  0  0  0  0
   89.9109   46.4408  263.0386 N   0  0  0  0  0  0  0  0  0  0  0  0
   88.6582   45.9328  263.1640 C   0  0  0  0  0  0  0  0  0  0  0  0
   87.8902   46.0836  264.3159 C   0  0  0  0  0  0  0  0  0  0  0  0
   88.4237   46.7992  265.3955 C   0  0  0  0  0  0  0  0  0  0  0  0
   87.4810   46.9013  266.9181 S   0  0  2  0  0  0  0  0  0  0  0  0
   86.1283   46.4027  266.6622 O   0  0  0  0  0  0  0  0  0  0  0  0
   87.6749   48.2444  267.4795 O   0  0  0  0  0  0  0  0  0  0  0  0
   88.3720   45.6610  268.0177 C   0  0  2  0  0  0  0  0  0  0  0  0
   97.4731   48.1493  268.0540 H   0  0  0  0  0  0  0  0  0  0  0  0
   96.7777   45.9432  267.0489 H   0  0  0  0  0  0  0  0  0  0  0  0
   92.2898   46.3840  266.0487 H   0  0  0  0  0  0  0  0  0  0  0  0
   91.2125   50.2818  267.4334 H   0  0  0  0  0  0  0  0  0  0  0  0
   89.5786   48.5968  266.8753 H   0  0  0  0  0  0  0  0  0  0  0  0
   92.2386   50.8269  269.9911 H   0  0  0  0  0  0  0  0  0  0  0  0
   92.7458   53.0099  271.0329 H   0  0  0  0  0  0  0  0  0  0  0  0
   94.9483   51.7242  266.7781 H   0  0  0  0  0  0  0  0  0  0  0  0
   96.5161   55.1677  269.6103 H   0  0  0  0  0  0  0  0  0  0  0  0
   95.4308   56.3261  268.8516 H   0  0  0  0  0  0  0  0  0  0  0  0
   96.5927   54.1609  267.5378 H   0  0  0  0  0  0  0  0  0  0  0  0
   95.0538   54.8694  267.0475 H   0  0  0  0  0  0  0  0  0  0  0  0
   91.4074   47.5284  263.9644 H   0  0  0  0  0  0  0  0  0  0  0  0
   88.2716   45.3808  262.3215 H   0  0  0  0  0  0  0  0  0  0  0  0
   86.9028   45.6381  264.3764 H   0  0  0  0  0  0  0  0  0  0  0  0
   87.8533   45.6063  268.9724 H   0  0  0  0  0  0  0  0  0  0  0  0
   89.3975   45.9996  268.1589 H   0  0  0  0  0  0  0  0  0  0  0  0
   88.3561   44.6887  267.5271 H   0  0  0  0  0  0  0  0  0  0  0  0
  1  4  1  0
  1  6  2  0
  2  3  1  0
  2  5  2  0
  3  4  2  0
  3 31  1  0
  4 32  1  0
  5  6  1  0
  5 10  1  0
  6  7  1  0
  7  8  2  0
  7 33  1  0
  8  9  1  0
  8 12  1  0
  9 10  2  0
  9 34  1  0
 10 11  1  0
 11 13  2  0
 11 15  1  0
 12 21  1  0
 12 35  1  0
 13 14  1  0
 13 36  1  0
 14 17  2  0
 14 37  1  0
 15 16  2  0
 15 38  1  0
 16 17  1  0
 16 20  1  0
 17 18  1  0
 18 19  1  0
 19 20  1  0
 19 39  1  1
 19 40  1  0
 20 41  1  6
 20 42  1  0
 21 22  2  0
 21 26  1  0
 22 23  1  0
 22 43  1  0
 23 24  2  0
 24 25  1  0
 24 44  1  0
 25 26  2  0
 25 45  1  0
 27 26  1  6
 27 28  2  0
 27 29  2  0
 27 30  1  0
 30 46  1  1
 30 47  1  0
 30 48  1  0
M  END
