39 flip
     RDKit          3D

 45 48  0  0  1  0  0  0  0  0999 V2000
   93.2802   49.7985  267.6875 C   0  0  0  0  0  0  0  0  0  0  0  0
   92.5744   47.3376  266.4723 C   0  0  0  0  0  0  0  0  0  0  0  0
   91.6199   48.3263  266.6804 C   0  0  0  0  0  0  0  0  0  0  0  0
   91.9714   49.5220  267.2872 C   0  0  0  0  0  0  0  0  0  0  0  0
   93.9019   47.5331  266.9251 C   0  0  0  0  0  0  0  0  0  0  0  0
   94.2659   48.7775  267.5222 C   0  0  0  0  0  0  0  0  0  0  0  0
   95.5666   48.9595  267.9453 N   0  0  0  0  0  0  0  0  0  0  0  0
   96.4488   47.9549  267.7510 C   0  0  0  0  0  0  0  0  0  0  0  0
   96.0765   46.7394  267.2041 C   0  0  0  0  0  0  0  0  0  0  0  0
   94.7993   46.5295  266.7714 N   0  0  0  0  0  0  0  0  0  0  0  0
   93.5961   51.1154  268.3351 C   0  0  0  0  0  0  0  0  0  0  0  0
   92.9183   51.5195  269.4737 C   0  0  0  0  0  0  0  0  0  0  0  0
   93.2120   52.7255  270.0858 C   0  0  0  0  0  0  0  0  0  0  0  0
   94.2300   53.5597  269.5376 C   0  0  0  0  0  0  0  0  0  0  0  0
   94.8382   53.1693  268.4179 C   0  0  0  0  0  0  0  0  0  0  0  0
   94.5845   51.9708  267.7813 C   0  0  0  0  0  0  0  0  0  0  0  0
   90.2895   48.1235  266.3187 N   0  0  0  0  0  0  0  0  0  0  0  0
   89.7108   47.3399  265.2871 C   0  0  0  0  0  0  0  0  0  0  0  0
   90.4200   47.1068  264.0926 C   0  0  0  0  0  0  0  0  0  0  0  0
   89.9178   46.4353  263.0435 N   0  0  0  0  0  0  0  0  0  0  0  0
   88.6596   45.9305  263.1598 C   0  0  0  0  0  0  0  0  0  0  0  0
   87.8887   46.0861  264.3126 C   0  0  0  0  0  0  0  0  0  0  0  0
   88.4246   46.7965  265.3987 C   0  0  0  0  0  0  0  0  0  0  0  0
   87.4849   46.9002  266.9304 S   0  0  2  0  0  0  0  0  0  0  0  0
   86.1214   46.3894  266.6610 O   0  0  0  0  0  0  0  0  0  0  0  0
   87.6704   48.2235  267.4846 O   0  0  0  0  0  0  0  0  0  0  0  0
   88.3749   45.6310  268.0078 C   0  0  2  0  0  0  0  0  0  0  0  0
   95.8087   54.0199  267.8287 N   0  0  0  0  0  0  0  0  0  0  0  0
   92.2846   46.3852  266.0479 H   0  0  0  0  0  0  0  0  0  0  0  0
   91.2071   50.2822  267.4406 H   0  0  0  0  0  0  0  0  0  0  0  0
   97.4762   48.1500  268.0507 H   0  0  0  0  0  0  0  0  0  0  0  0
   96.7765   45.9460  267.0392 H   0  0  0  0  0  0  0  0  0  0  0  0
   92.1517   50.8773  269.9190 H   0  0  0  0  0  0  0  0  0  0  0  0
   92.6926   53.0326  270.9899 H   0  0  0  0  0  0  0  0  0  0  0  0
   94.4196   54.5024  270.0271 H   0  0  0  0  0  0  0  0  0  0  0  0
   95.0859   51.6645  266.8800 H   0  0  0  0  0  0  0  0  0  0  0  0
   89.5718   48.6003  266.8710 H   0  0  0  0  0  0  0  0  0  0  0  0
   91.4072   47.5191  263.9725 H   0  0  0  0  0  0  0  0  0  0  0  0
   88.2712   45.3832  262.3244 H   0  0  0  0  0  0  0  0  0  0  0  0
   86.8931   45.6417  264.3768 H   0  0  0  0  0  0  0  0  0  0  0  0
   87.8403   45.5136  268.9559 H   0  0  0  0  0  0  0  0  0  0  0  0
   89.3890   45.9893  268.1772 H   0  0  0  0  0  0  0  0  0  0  0  0
   88.3862   44.6843  267.4915 H   0  0  0  0  0  0  0  0  0  0  0  0
   96.2153   53.7952  266.9316 H   0  0  0  0  0  0  0  0  0  0  0  0
   95.9606   54.9375  268.2267 H   0  0  0  0  0  0  0  0  0  0  0  0
  1  4  1  0
  1  6  2  0
  1 11  1  0
  2  3  1  0
  2  5  2  0
  2 29  1  0
  3  4  2  0
  3 17  1  0
  4 30  1  0
  5  6  1  0
  5 10  1  0
  6  7  1  0
  7  8  2  0
  8  9  1  0
  8 31  1  0
  9 10  2  0
  9 32  1  0
 11 12  2  0
 11 16  1  0
 12 13  1  0
 12 33  1  0
 13 14  2  0
 13 34  1  0
 14 15  1  0
 14 35  1  0
 15 16  2  0
 15 28  1  0
 16 36  1  0
 17 18  1  0
 17 37  1  0
 18 19  2  0
 18 23  1  0
 19 20  1  0
 19 38  1  0
 20 21  2  0
 21 22  1  0
 21 39  1  0
 22 23  2  0
 22 40  1  0
 24 23  1  6
 24 25  2  0
 24 26  2  0
 24 27  1  0
 27 41  1  1
 27 42  1  0
 27 43  1  0
 28 44  1  0
 28 45  1  0
M  END
