30 flip c
     RDKit          3D

 48 52  0  0  1  0  0  0  0  0999 V2000
   90.3246   48.2158  265.9106 N   0  0  0  0  0  0  0  0  0  0  0  0
   91.6410   48.3483  266.3682 C   0  0  0  0  0  0  0  0  0  0  0  0
   91.9415   49.5214  267.0589 C   0  0  0  0  0  0  0  0  0  0  0  0
   93.1916   49.7577  267.6267 C   0  0  0  0  0  0  0  0  0  0  0  0
   94.2090   48.7633  267.4940 C   0  0  0  0  0  0  0  0  0  0  0  0
   93.8920   47.5406  266.8142 C   0  0  0  0  0  0  0  0  0  0  0  0
   92.6020   47.3493  266.2505 C   0  0  0  0  0  0  0  0  0  0  0  0
   93.3887   51.0078  268.4028 C   0  0  0  0  0  0  0  0  0  0  0  0
   92.5836   51.3128  269.4975 C   0  0  0  0  0  0  0  0  0  0  0  0
   92.7593   52.4833  270.2336 C   0  0  0  0  0  0  0  0  0  0  0  0
   93.7642   53.3823  269.8541 C   0  0  0  0  0  0  0  0  0  0  0  0
   94.5734   53.0666  268.7204 C   0  0  0  0  0  0  0  0  0  0  0  0
   94.4078   51.8774  268.0029 C   0  0  0  0  0  0  0  0  0  0  0  0
   94.2302   54.6374  270.3518 C   0  0  0  0  0  0  0  0  0  0  0  0
   95.2426   55.0576  269.5199 C   0  0  0  0  0  0  0  0  0  0  0  0
   95.4536   54.1203  268.5353 N   0  0  0  0  0  0  0  0  0  0  0  0
   94.8307   46.5542  266.6953 N   0  0  0  0  0  0  0  0  0  0  0  0
   96.0576   46.7723  267.2282 C   0  0  0  0  0  0  0  0  0  0  0  0
   96.3687   47.9683  267.8707 C   0  0  0  0  0  0  0  0  0  0  0  0
   95.4525   48.9489  268.0267 N   0  0  0  0  0  0  0  0  0  0  0  0
   96.4740   54.1919  267.5197 C   0  0  2  0  0  0  0  0  0  0  0  0
   89.6285   47.2718  265.1312 C   0  0  0  0  0  0  0  0  0  0  0  0
   88.4219   46.6398  265.4838 C   0  0  0  0  0  0  0  0  0  0  0  0
   87.8482   45.6848  264.6862 N   0  0  0  0  0  0  0  0  0  0  0  0
   88.4683   45.3397  263.5338 C   0  0  0  0  0  0  0  0  0  0  0  0
   89.6690   45.9075  263.1322 C   0  0  0  0  0  0  0  0  0  0  0  0
   90.2537   46.8755  263.9474 C   0  0  0  0  0  0  0  0  0  0  0  0
   87.7878   46.9156  266.6849 O   0  0  0  0  0  0  0  0  0  0  0  0
   86.7178   46.0688  267.1282 C   0  0  2  0  0  0  0  0  0  0  0  0
   89.7054   48.8989  266.3314 H   0  0  0  0  0  0  0  0  0  0  0  0
   91.1742   50.2745  267.1733 H   0  0  0  0  0  0  0  0  0  0  0  0
   92.3704   46.4313  265.7346 H   0  0  0  0  0  0  0  0  0  0  0  0
   91.8016   50.6257  269.7885 H   0  0  0  0  0  0  0  0  0  0  0  0
   92.1299   52.6864  271.0867 H   0  0  0  0  0  0  0  0  0  0  0  0
   95.0320   51.6495  267.1495 H   0  0  0  0  0  0  0  0  0  0  0  0
   93.8601   55.1817  271.2086 H   0  0  0  0  0  0  0  0  0  0  0  0
   95.8536   55.9481  269.5554 H   0  0  0  0  0  0  0  0  0  0  0  0
   96.7837   45.9839  267.1326 H   0  0  0  0  0  0  0  0  0  0  0  0
   97.3426   48.1426  268.2967 H   0  0  0  0  0  0  0  0  0  0  0  0
   96.0485   53.9418  266.5484 H   0  0  0  0  0  0  0  0  0  0  0  0
   97.2849   53.5025  267.7535 H   0  0  0  0  0  0  0  0  0  0  0  0
   96.8530   55.2168  267.4751 H   0  0  0  0  0  0  0  0  0  0  0  0
   87.9686   44.6011  262.9128 H   0  0  0  0  0  0  0  0  0  0  0  0
   90.1317   45.6226  262.1947 H   0  0  0  0  0  0  0  0  0  0  0  0
   91.1900   47.3216  263.6410 H   0  0  0  0  0  0  0  0  0  0  0  0
   86.3487   46.3760  268.1113 H   0  0  0  0  0  0  0  0  0  0  0  0
   87.0353   45.0321  267.2352 H   0  0  0  0  0  0  0  0  0  0  0  0
   85.8727   46.0765  266.4414 H   0  0  0  0  0  0  0  0  0  0  0  0
  1  2  1  0
  1 22  1  0
  1 30  1  0
  2  3  2  0
  2  7  1  0
  3  4  1  0
  3 31  1  0
  4  5  2  0
  4  8  1  0
  5 20  1  0
  5  6  1  0
  6  7  2  0
  6 17  1  0
  7 32  1  0
  8  9  2  0
  8 13  1  0
  9 10  1  0
  9 33  1  0
 10 11  2  0
 10 34  1  0
 11 14  1  0
 11 12  1  0
 12 13  2  0
 12 16  1  0
 13 35  1  0
 14 15  2  0
 14 36  1  0
 15 16  1  0
 15 37  1  0
 16 21  1  0
 17 18  2  0
 18 19  1  0
 18 38  1  0
 19 20  2  0
 19 39  1  0
 21 40  1  6
 21 41  1  0
 21 42  1  0
 22 23  1  0
 22 27  2  0
 23 24  2  0
 23 28  1  0
 24 25  1  0
 25 26  2  0
 25 43  1  0
 26 27  1  0
 26 44  1  0
 27 45  1  0
 28 29  1  0
 29 46  1  1
 29 47  1  0
 29 48  1  0
M  END
