38 flip
     RDKit          3D

 51 54  0  0  1  0  0  0  0  0999 V2000
   93.2867   49.7938  267.6782 C   0  0  0  0  0  0  0  0  0  0  0  0
   92.5654   47.3311  266.4816 C   0  0  0  0  0  0  0  0  0  0  0  0
   91.6089   48.3230  266.6726 C   0  0  0  0  0  0  0  0  0  0  0  0
   91.9718   49.5238  267.2764 C   0  0  0  0  0  0  0  0  0  0  0  0
   93.8961   47.5281  266.9156 C   0  0  0  0  0  0  0  0  0  0  0  0
   94.2745   48.7732  267.5111 C   0  0  0  0  0  0  0  0  0  0  0  0
   95.5637   48.9600  267.9394 N   0  0  0  0  0  0  0  0  0  0  0  0
   96.4525   47.9510  267.7602 C   0  0  0  0  0  0  0  0  0  0  0  0
   96.0664   46.7362  267.2062 C   0  0  0  0  0  0  0  0  0  0  0  0
   94.7996   46.5168  266.7811 N   0  0  0  0  0  0  0  0  0  0  0  0
   89.7127   47.3363  265.2872 C   0  0  0  0  0  0  0  0  0  0  0  0
   90.4139   47.1275  264.0953 C   0  0  0  0  0  0  0  0  0  0  0  0
   89.9037   46.4485  263.0367 N   0  0  0  0  0  0  0  0  0  0  0  0
   88.6507   45.9427  263.1625 C   0  0  0  0  0  0  0  0  0  0  0  0
   87.8846   46.0870  264.3185 C   0  0  0  0  0  0  0  0  0  0  0  0
   88.4205   46.7962  265.3983 C   0  0  0  0  0  0  0  0  0  0  0  0
   87.4819   46.8918  266.9282 S   0  0  1  0  0  0  0  0  0  0  0  0
   86.1279   46.3929  266.6697 O   0  0  0  0  0  0  0  0  0  0  0  0
   88.3703   45.6406  268.0228 C   0  0  2  0  0  0  0  0  0  0  0  0
   87.6772   48.2349  267.4843 O   0  0  0  0  0  0  0  0  0  0  0  0
   90.2707   48.1110  266.3142 N   0  0  0  0  0  0  0  0  0  0  0  0
   93.5987   51.1027  268.3120 C   0  0  0  0  0  0  0  0  0  0  0  0
   94.5561   51.9507  267.7449 C   0  0  0  0  0  0  0  0  0  0  0  0
   94.8615   53.2038  268.2985 C   0  0  0  0  0  0  0  0  0  0  0  0
   94.2074   53.5665  269.4841 C   0  0  0  0  0  0  0  0  0  0  0  0
   93.2396   52.7419  270.0562 C   0  0  0  0  0  0  0  0  0  0  0  0
   92.9364   51.5158  269.4697 C   0  0  0  0  0  0  0  0  0  0  0  0
   95.7674   54.0887  267.6563 N   0  0  0  0  0  0  0  0  0  0  0  0
   96.0948   55.3809  268.2538 C   0  0  2  0  0  0  0  0  0  0  0  0
   96.5750   53.6434  266.5219 C   0  0  2  0  0  0  0  0  0  0  0  0
   92.2797   46.3851  266.0467 H   0  0  0  0  0  0  0  0  0  0  0  0
   91.2121   50.2761  267.4285 H   0  0  0  0  0  0  0  0  0  0  0  0
   97.4763   48.1494  268.0460 H   0  0  0  0  0  0  0  0  0  0  0  0
   96.7758   45.9385  267.0386 H   0  0  0  0  0  0  0  0  0  0  0  0
   91.4110   47.5227  263.9794 H   0  0  0  0  0  0  0  0  0  0  0  0
   88.2698   45.3853  262.3211 H   0  0  0  0  0  0  0  0  0  0  0  0
   86.9033   45.6379  264.3878 H   0  0  0  0  0  0  0  0  0  0  0  0
   87.8420   45.5238  268.9687 H   0  0  0  0  0  0  0  0  0  0  0  0
   89.3912   45.9889  268.1760 H   0  0  0  0  0  0  0  0  0  0  0  0
   88.3713   44.6834  267.5060 H   0  0  0  0  0  0  0  0  0  0  0  0
   89.5657   48.5886  266.8661 H   0  0  0  0  0  0  0  0  0  0  0  0
   95.0313   51.6296  266.8326 H   0  0  0  0  0  0  0  0  0  0  0  0
   94.4037   54.5145  269.9601 H   0  0  0  0  0  0  0  0  0  0  0  0
   92.7318   53.0455  270.9592 H   0  0  0  0  0  0  0  0  0  0  0  0
   92.1863   50.8823  269.9232 H   0  0  0  0  0  0  0  0  0  0  0  0
   96.7546   55.9785  267.6233 H   0  0  0  0  0  0  0  0  0  0  0  0
   96.5948   55.2295  269.2099 H   0  0  0  0  0  0  0  0  0  0  0  0
   95.1936   55.9637  268.4454 H   0  0  0  0  0  0  0  0  0  0  0  0
   97.1597   54.4576  266.0924 H   0  0  0  0  0  0  0  0  0  0  0  0
   95.9513   53.2313  265.7282 H   0  0  0  0  0  0  0  0  0  0  0  0
   97.2646   52.8634  266.8447 H   0  0  0  0  0  0  0  0  0  0  0  0
  1  4  1  0
  1  6  2  0
  1 22  1  0
  2  3  1  0
  2  5  2  0
  2 31  1  0
  3  4  2  0
  3 21  1  0
  4 32  1  0
  5  6  1  0
  5 10  1  0
  6  7  1  0
  7  8  2  0
  8  9  1  0
  8 33  1  0
  9 10  2  0
  9 34  1  0
 11 12  2  0
 11 16  1  0
 11 21  1  0
 12 13  1  0
 12 35  1  0
 13 14  2  0
 14 15  1  0
 14 36  1  0
 15 16  2  0
 15 37  1  0
 17 16  1  6
 17 18  2  0
 17 19  1  0
 17 20  2  0
 19 38  1  1
 19 39  1  0
 19 40  1  0
 21 41  1  0
 22 23  2  0
 22 27  1  0
 23 24  1  0
 23 42  1  0
 24 25  2  0
 24 28  1  0
 25 26  1  0
 25 43  1  0
 26 27  2  0
 26 44  1  0
 27 45  1  0
 28 29  1  0
 28 30  1  0
 29 46  1  6
 29 47  1  0
 29 48  1  0
 30 49  1  6
 30 50  1  0
 30 51  1  0
M  END
