52 flip
     RDKit          3D

 53 57  0  0  1  0  0  0  0  0999 V2000
   93.3114   49.8130  267.6412 C   0  0  0  0  0  0  0  0  0  0  0  0
   92.5675   47.3461  266.4704 C   0  0  0  0  0  0  0  0  0  0  0  0
   91.6140   48.3391  266.6758 C   0  0  0  0  0  0  0  0  0  0  0  0
   91.9831   49.5402  267.2762 C   0  0  0  0  0  0  0  0  0  0  0  0
   93.8959   47.5397  266.9028 C   0  0  0  0  0  0  0  0  0  0  0  0
   94.2808   48.7816  267.4948 C   0  0  0  0  0  0  0  0  0  0  0  0
   95.5663   48.9631  267.9272 N   0  0  0  0  0  0  0  0  0  0  0  0
   96.4496   47.9536  267.7395 C   0  0  0  0  0  0  0  0  0  0  0  0
   96.0619   46.7444  267.1779 C   0  0  0  0  0  0  0  0  0  0  0  0
   94.7952   46.5297  266.7538 N   0  0  0  0  0  0  0  0  0  0  0  0
   90.2754   48.1313  266.3198 N   0  0  0  0  0  0  0  0  0  0  0  0
   89.7170   47.3507  265.2914 C   0  0  0  0  0  0  0  0  0  0  0  0
   90.4214   47.1275  264.1002 C   0  0  0  0  0  0  0  0  0  0  0  0
   89.9190   46.4350  263.0469 N   0  0  0  0  0  0  0  0  0  0  0  0
   88.6628   45.9396  263.1653 C   0  0  0  0  0  0  0  0  0  0  0  0
   87.8883   46.0973  264.3134 C   0  0  0  0  0  0  0  0  0  0  0  0
   88.4249   46.8053  265.3978 C   0  0  0  0  0  0  0  0  0  0  0  0
   87.4805   46.8913  266.9255 S   0  0  2  0  0  0  0  0  0  0  0  0
   86.1396   46.3665  266.6677 O   0  0  0  0  0  0  0  0  0  0  0  0
   87.6492   48.2417  267.4792 O   0  0  0  0  0  0  0  0  0  0  0  0
   88.3838   45.6765  268.0465 C   0  0  2  0  0  0  0  0  0  0  0  0
   93.6501   51.1190  268.2585 C   0  0  0  0  0  0  0  0  0  0  0  0
   93.1723   51.5230  269.4992 C   0  0  0  0  0  0  0  0  0  0  0  0
   93.5299   52.7552  270.0495 C   0  0  0  0  0  0  0  0  0  0  0  0
   94.4639   51.9517  267.5201 C   0  0  0  0  0  0  0  0  0  0  0  0
   94.8256   53.2009  268.0318 C   0  0  0  0  0  0  0  0  0  0  0  0
   94.3902   53.6037  269.3271 C   0  0  0  0  0  0  0  0  0  0  0  0
   94.9769   54.8828  269.5754 C   0  0  0  0  0  0  0  0  0  0  0  0
   95.6859   55.2281  268.4487 C   0  0  0  0  0  0  0  0  0  0  0  0
   95.5941   54.2368  267.4978 N   0  0  0  0  0  0  0  0  0  0  0  0
   96.1411   54.3658  266.1343 C   0  0  2  0  0  0  0  0  0  0  0  0
   95.8238   53.1830  265.2244 C   0  0  2  0  0  0  0  0  0  0  0  0
   92.2865   46.4011  266.0282 H   0  0  0  0  0  0  0  0  0  0  0  0
   91.2205   50.2896  267.4479 H   0  0  0  0  0  0  0  0  0  0  0  0
   97.4683   48.1407  268.0439 H   0  0  0  0  0  0  0  0  0  0  0  0
   96.7697   45.9448  267.0181 H   0  0  0  0  0  0  0  0  0  0  0  0
   89.5855   48.6227  266.8783 H   0  0  0  0  0  0  0  0  0  0  0  0
   91.4226   47.5040  263.9727 H   0  0  0  0  0  0  0  0  0  0  0  0
   88.2778   45.3844  262.3233 H   0  0  0  0  0  0  0  0  0  0  0  0
   86.9011   45.6556  264.3639 H   0  0  0  0  0  0  0  0  0  0  0  0
   87.8696   45.6352  269.0056 H   0  0  0  0  0  0  0  0  0  0  0  0
   89.4113   46.0126  268.1796 H   0  0  0  0  0  0  0  0  0  0  0  0
   88.3656   44.6930  267.5796 H   0  0  0  0  0  0  0  0  0  0  0  0
   92.5345   50.8411  270.0387 H   0  0  0  0  0  0  0  0  0  0  0  0
   93.1587   53.0325  271.0262 H   0  0  0  0  0  0  0  0  0  0  0  0
   94.7753   51.5376  266.5845 H   0  0  0  0  0  0  0  0  0  0  0  0
   94.8490   55.4947  270.4571 H   0  0  0  0  0  0  0  0  0  0  0  0
   96.2497   56.1299  268.2421 H   0  0  0  0  0  0  0  0  0  0  0  0
   97.2240   54.4751  266.1873 H   0  0  0  0  0  0  0  0  0  0  0  0
   95.7339   55.2660  265.6765 H   0  0  0  0  0  0  0  0  0  0  0  0
   96.1892   53.2556  264.2160 H   0  0  0  0  0  0  0  0  0  0  0  0
   94.7913   53.2041  264.9187 H   0  0  0  0  0  0  0  0  0  0  0  0
   96.0937   52.2133  265.6551 H   0  0  0  0  0  0  0  0  0  0  0  0
  1  4  1  0
  1  6  2  0
  1 22  1  0
  2  3  1  0
  2  5  2  0
  2 33  1  0
  3  4  2  0
  3 11  1  0
  4 34  1  0
  5  6  1  0
  5 10  1  0
  6  7  1  0
  7  8  2  0
  8  9  1  0
  8 35  1  0
  9 10  2  0
  9 36  1  0
 11 12  1  0
 11 37  1  0
 12 13  2  0
 12 17  1  0
 13 14  1  0
 13 38  1  0
 14 15  2  0
 15 16  1  0
 15 39  1  0
 16 17  2  0
 16 40  1  0
 18 17  1  6
 18 19  2  0
 18 20  2  0
 18 21  1  0
 21 41  1  1
 21 42  1  0
 21 43  1  0
 22 23  2  0
 22 25  1  0
 23 24  1  0
 23 44  1  0
 24 27  2  0
 24 45  1  0
 25 26  2  0
 25 46  1  0
 26 27  1  0
 26 30  1  0
 27 28  1  0
 28 29  2  0
 28 47  1  0
 29 30  1  0
 29 48  1  0
 30 31  1  0
 31 32  1  0
 31 49  1  1
 31 50  1  0
 32 51  1  6
 32 52  1  0
 32 53  1  0
M  END
