67 flip
     RDKit          3D

 47 51  0  0  1  0  0  0  0  0999 V2000
   93.1004   49.7216  267.7155 C   0  0  0  0  0  0  0  0  0  0  0  0
   92.5890   47.2745  266.3896 C   0  0  0  0  0  0  0  0  0  0  0  0
   91.5683   48.2049  266.5759 C   0  0  0  0  0  0  0  0  0  0  0  0
   91.8300   49.4026  267.2297 C   0  0  0  0  0  0  0  0  0  0  0  0
   93.8878   47.5400  266.8820 C   0  0  0  0  0  0  0  0  0  0  0  0
   94.1599   48.7802  267.5411 C   0  0  0  0  0  0  0  0  0  0  0  0
   95.4145   49.0346  268.0280 N   0  0  0  0  0  0  0  0  0  0  0  0
   96.3713   48.0905  267.8536 C   0  0  0  0  0  0  0  0  0  0  0  0
   96.0910   46.8809  267.2282 C   0  0  0  0  0  0  0  0  0  0  0  0
   94.8599   46.5971  266.7393 N   0  0  0  0  0  0  0  0  0  0  0  0
   93.2846   50.9778  268.4857 C   0  0  0  0  0  0  0  0  0  0  0  0
   92.5192   51.2398  269.6265 C   0  0  0  0  0  0  0  0  0  0  0  0
   92.6516   52.4252  270.3510 C   0  0  0  0  0  0  0  0  0  0  0  0
   94.2111   51.9209  268.0269 C   0  0  0  0  0  0  0  0  0  0  0  0
   90.2493   47.9429  266.1975 N   0  0  0  0  0  0  0  0  0  0  0  0
   89.6938   47.1846  265.1577 C   0  0  0  0  0  0  0  0  0  0  0  0
   90.3836   46.9926  263.9558 C   0  0  0  0  0  0  0  0  0  0  0  0
   89.8604   46.3316  262.8928 N   0  0  0  0  0  0  0  0  0  0  0  0
   88.6069   45.8318  263.0224 C   0  0  0  0  0  0  0  0  0  0  0  0
   87.8451   45.9660  264.1837 C   0  0  0  0  0  0  0  0  0  0  0  0
   88.3928   46.6627  265.2677 C   0  0  0  0  0  0  0  0  0  0  0  0
   87.4640   46.8258  266.7979 S   0  0  1  0  0  0  0  0  0  0  0  0
   87.6173   48.2190  267.2276 O   0  0  0  0  0  0  0  0  0  0  0  0
   86.1278   46.2817  266.5368 O   0  0  0  0  0  0  0  0  0  0  0  0
   88.2895   45.7139  268.0726 C   0  0  2  0  0  0  0  0  0  0  0  0
   94.3519   53.1265  268.7201 C   0  0  0  0  0  0  0  0  0  0  0  0
   93.5841   53.3611  269.8904 C   0  0  0  0  0  0  0  0  0  0  0  0
   94.0173   54.9243  270.5492 S   0  0  0  0  0  0  0  0  0  0  0  0
   95.0685   55.1302  269.1861 C   0  0  0  0  0  0  0  0  0  0  0  0
   95.1761   54.1410  268.3538 N   0  0  0  0  0  0  0  0  0  0  0  0
   95.7287   56.3037  269.0720 N   0  0  0  0  0  0  0  0  0  0  0  0
   92.3771   46.3274  265.9191 H   0  0  0  0  0  0  0  0  0  0  0  0
   91.0166   50.1019  267.3766 H   0  0  0  0  0  0  0  0  0  0  0  0
   97.3578   48.3186  268.2289 H   0  0  0  0  0  0  0  0  0  0  0  0
   96.8555   46.1283  267.0976 H   0  0  0  0  0  0  0  0  0  0  0  0
   91.8024   50.5012  269.9613 H   0  0  0  0  0  0  0  0  0  0  0  0
   92.0534   52.6076  271.2343 H   0  0  0  0  0  0  0  0  0  0  0  0
   94.7951   51.7405  267.1372 H   0  0  0  0  0  0  0  0  0  0  0  0
   89.5427   48.3411  266.8073 H   0  0  0  0  0  0  0  0  0  0  0  0
   91.3786   47.3860  263.8271 H   0  0  0  0  0  0  0  0  0  0  0  0
   88.2110   45.2945  262.1738 H   0  0  0  0  0  0  0  0  0  0  0  0
   86.8592   45.5273  264.2271 H   0  0  0  0  0  0  0  0  0  0  0  0
   87.7064   45.7620  268.9919 H   0  0  0  0  0  0  0  0  0  0  0  0
   89.2978   46.0801  268.2656 H   0  0  0  0  0  0  0  0  0  0  0  0
   88.3046   44.6950  267.6961 H   0  0  0  0  0  0  0  0  0  0  0  0
   95.8097   56.8996  269.8961 H   0  0  0  0  0  0  0  0  0  0  0  0
   96.4505   56.4281  268.3740 H   0  0  0  0  0  0  0  0  0  0  0  0
  1  4  1  0
  1  6  2  0
  1 11  1  0
  2  3  1  0
  2  5  2  0
  2 32  1  0
  3  4  2  0
  3 15  1  0
  4 33  1  0
  5  6  1  0
  5 10  1  0
  6  7  1  0
  7  8  2  0
  8  9  1  0
  8 34  1  0
  9 10  2  0
  9 35  1  0
 11 12  2  0
 11 14  1  0
 12 13  1  0
 12 36  1  0
 13 27  2  0
 13 37  1  0
 14 26  2  0
 14 38  1  0
 15 16  1  0
 15 39  1  0
 16 17  2  0
 16 21  1  0
 17 18  1  0
 17 40  1  0
 18 19  2  0
 19 20  1  0
 19 41  1  0
 20 21  2  0
 20 42  1  0
 22 21  1  6
 22 23  2  0
 22 24  2  0
 22 25  1  0
 25 43  1  1
 25 44  1  0
 25 45  1  0
 26 27  1  0
 26 30  1  0
 27 28  1  0
 28 29  1  0
 29 30  2  0
 29 31  1  0
 31 46  1  0
 31 47  1  0
M  END
