5ANT_A_ligand
     RDKit          3D

 43 45  0  0  1  0  0  0  0  0999 V2000
   16.4219   17.0330    7.8983 C   0  0  1  0  0  0  0  0  0  0  0  0
   16.8113   18.2244    7.1526 N   0  0  0  0  0  0  0  0  0  0  0  0
   15.9257   18.8078    6.2335 C   0  0  0  0  0  0  0  0  0  0  0  0
   14.6171   18.4093    6.2061 N   0  0  0  0  0  0  0  0  0  0  0  0
   13.7895   19.0234    5.3157 C   0  0  0  0  0  0  0  0  0  0  0  0
   12.4659   18.6450    5.4121 O   0  0  0  0  0  0  0  0  0  0  0  0
   11.4800   19.1548    4.5060 C   0  0  2  0  0  0  0  0  0  0  0  0
   10.3117   19.7451    5.3104 C   0  0  2  0  0  0  0  0  0  0  0  0
   10.6526   20.9973    5.8956 O   0  0  0  0  0  0  0  0  0  0  0  0
   10.4337   22.1158    5.0469 C   0  0  1  0  0  0  0  0  0  0  0  0
   14.1623   19.9685    4.4083 N   0  0  0  0  0  0  0  0  0  0  0  0
   15.4621   20.3329    4.4784 C   0  0  0  0  0  0  0  0  0  0  0  0
   16.1398   21.2307    3.6904 N   0  0  0  0  0  0  0  0  0  0  0  0
   15.6151   21.9912    2.5568 C   0  0  2  0  0  0  0  0  0  0  0  0
   14.9118   23.2896    2.9218 C   0  0  0  0  0  0  0  0  0  0  0  0
   13.6900   23.2691    3.5988 C   0  0  0  0  0  0  0  0  0  0  0  0
   13.0110   24.4587    3.8436 C   0  0  0  0  0  0  0  0  0  0  0  0
   13.5539   25.6630    3.4072 C   0  0  0  0  0  0  0  0  0  0  0  0
   14.7722   25.6912    2.7353 C   0  0  0  0  0  0  0  0  0  0  0  0
   15.4559   24.5032    2.4962 C   0  0  0  0  0  0  0  0  0  0  0  0
   17.4199   21.3596    4.1129 C   0  0  0  0  0  0  0  0  0  0  0  0
   18.2778   22.1035    3.6500 O   0  0  0  0  0  0  0  0  0  0  0  0
   17.5500   20.4670    5.1241 N   0  0  0  0  0  0  0  0  0  0  0  0
   16.3606   19.8107    5.3595 C   0  0  0  0  0  0  0  0  0  0  0  0
   17.2015   16.7656    8.6092 H   0  0  0  0  0  0  0  0  0  0  0  0
   15.4999   17.1994    8.4558 H   0  0  0  0  0  0  0  0  0  0  0  0
   16.2768   16.1866    7.2259 H   0  0  0  0  0  0  0  0  0  0  0  0
   17.7967   18.3277    6.9400 H   0  0  0  0  0  0  0  0  0  0  0  0
   11.1284   18.3155    3.9081 H   0  0  0  0  0  0  0  0  0  0  0  0
   11.8307   19.8866    3.7798 H   0  0  0  0  0  0  0  0  0  0  0  0
   10.0555   19.0592    6.1177 H   0  0  0  0  0  0  0  0  0  0  0  0
    9.4149   19.8246    4.6933 H   0  0  0  0  0  0  0  0  0  0  0  0
   10.7208   23.0263    5.5714 H   0  0  0  0  0  0  0  0  0  0  0  0
   11.0174   22.0524    4.1301 H   0  0  0  0  0  0  0  0  0  0  0  0
    9.3849   22.2114    4.7696 H   0  0  0  0  0  0  0  0  0  0  0  0
   14.9130   21.3527    2.0223 H   0  0  0  0  0  0  0  0  0  0  0  0
   16.4214   22.2142    1.8548 H   0  0  0  0  0  0  0  0  0  0  0  0
   13.2582   22.3359    3.9230 H   0  0  0  0  0  0  0  0  0  0  0  0
   12.0665   24.4541    4.3647 H   0  0  0  0  0  0  0  0  0  0  0  0
   13.0240   26.5821    3.6020 H   0  0  0  0  0  0  0  0  0  0  0  0
   15.1839   26.6315    2.4020 H   0  0  0  0  0  0  0  0  0  0  0  0
   16.4001   24.5250    1.9713 H   0  0  0  0  0  0  0  0  0  0  0  0
   18.4192   20.2988    5.6188 H   0  0  0  0  0  0  0  0  0  0  0  0
  1  2  1  0
  1 25  1  1
  1 26  1  0
  1 27  1  0
  2  3  1  0
  2 28  1  0
  3  4  2  0
  3 24  1  0
  4  5  1  0
  5  6  1  0
  5 11  2  0
  6  7  1  0
  7  8  1  0
  7 29  1  6
  7 30  1  0
  8  9  1  0
  8 31  1  1
  8 32  1  0
  9 10  1  0
 10 33  1  1
 10 34  1  0
 10 35  1  0
 11 12  1  0
 12 13  1  0
 12 24  2  0
 13 14  1  0
 13 21  1  0
 14 15  1  0
 14 36  1  6
 14 37  1  0
 15 16  2  0
 15 20  1  0
 16 17  1  0
 16 38  1  0
 17 18  2  0
 17 39  1  0
 18 19  1  0
 18 40  1  0
 19 20  2  0
 19 41  1  0
 20 42  1  0
 21 22  2  0
 21 23  1  0
 23 24  1  0
 23 43  1  0
M  END
