5ANU_ligand
     RDKit          3D

 45 48  0  0  1  0  0  0  0  0999 V2000
   18.3481   22.0759    3.8716 O   0  0  0  0  0  0  0  0  0  0  0  0
   17.4657   21.3378    4.2915 C   0  0  0  0  0  0  0  0  0  0  0  0
   17.5463   20.4447    5.3056 N   0  0  0  0  0  0  0  0  0  0  0  0
   16.3541   19.7758    5.4675 C   0  0  0  0  0  0  0  0  0  0  0  0
   16.2086   21.2154    3.8057 N   0  0  0  0  0  0  0  0  0  0  0  0
   15.5026   20.2914    4.5368 C   0  0  0  0  0  0  0  0  0  0  0  0
   15.7442   21.9859    2.6507 C   0  0  2  0  0  0  0  0  0  0  0  0
   14.9589   23.2470    2.9691 C   0  0  0  0  0  0  0  0  0  0  0  0
   15.3599   24.4672    2.4223 C   0  0  0  0  0  0  0  0  0  0  0  0
   14.5516   25.5925    2.5646 C   0  0  0  0  0  0  0  0  0  0  0  0
   13.3472   25.5068    3.2638 C   0  0  0  0  0  0  0  0  0  0  0  0
   13.7762   23.1835    3.7078 C   0  0  0  0  0  0  0  0  0  0  0  0
   12.9634   24.3098    3.8684 C   0  0  0  0  0  0  0  0  0  0  0  0
   11.7822   24.2877    4.5784 O   0  0  0  0  0  0  0  0  0  0  0  0
   11.7346   23.5199    5.7832 C   0  0  2  0  0  0  0  0  0  0  0  0
   10.8111   22.3037    5.6398 C   0  0  2  0  0  0  0  0  0  0  0  0
   11.4702   21.2682    4.9350 O   0  0  0  0  0  0  0  0  0  0  0  0
   10.7010   20.0870    4.7874 C   0  0  2  0  0  0  0  0  0  0  0  0
   11.5950   18.9842    4.2096 C   0  0  2  0  0  0  0  0  0  0  0  0
   12.5014   18.4949    5.2081 O   0  0  0  0  0  0  0  0  0  0  0  0
   13.8094   18.9360    5.2480 C   0  0  0  0  0  0  0  0  0  0  0  0
   14.2221   19.8961    4.3754 N   0  0  0  0  0  0  0  0  0  0  0  0
   14.5873   18.3398    6.1961 N   0  0  0  0  0  0  0  0  0  0  0  0
   15.8849   18.7589    6.3048 C   0  0  0  0  0  0  0  0  0  0  0  0
   16.7337   18.1779    7.2597 N   0  0  0  0  0  0  0  0  0  0  0  0
   16.3257   16.9825    7.9850 C   0  0  1  0  0  0  0  0  0  0  0  0
   18.3928   20.2711    5.8361 H   0  0  0  0  0  0  0  0  0  0  0  0
   15.1017   21.3403    2.0519 H   0  0  0  0  0  0  0  0  0  0  0  0
   16.5918   22.2546    2.0172 H   0  0  0  0  0  0  0  0  0  0  0  0
   16.2747   24.5377    1.8513 H   0  0  0  0  0  0  0  0  0  0  0  0
   14.8582   26.5238    2.1172 H   0  0  0  0  0  0  0  0  0  0  0  0
   12.7167   26.3755    3.3681 H   0  0  0  0  0  0  0  0  0  0  0  0
   13.4647   22.2458    4.1249 H   0  0  0  0  0  0  0  0  0  0  0  0
   11.3277   24.1752    6.5508 H   0  0  0  0  0  0  0  0  0  0  0  0
   12.7174   23.2239    6.1564 H   0  0  0  0  0  0  0  0  0  0  0  0
    9.8845   22.5882    5.1382 H   0  0  0  0  0  0  0  0  0  0  0  0
   10.5548   21.9337    6.6299 H   0  0  0  0  0  0  0  0  0  0  0  0
    9.8606   20.2836    4.1214 H   0  0  0  0  0  0  0  0  0  0  0  0
   10.2930   19.7590    5.7459 H   0  0  0  0  0  0  0  0  0  0  0  0
   12.0768   19.3072    3.2855 H   0  0  0  0  0  0  0  0  0  0  0  0
   10.9743   18.1461    3.9059 H   0  0  0  0  0  0  0  0  0  0  0  0
   17.7278   18.2803    7.0942 H   0  0  0  0  0  0  0  0  0  0  0  0
   17.0970   16.7090    8.7029 H   0  0  0  0  0  0  0  0  0  0  0  0
   15.3970   17.1512    8.5305 H   0  0  0  0  0  0  0  0  0  0  0  0
   16.1884   16.1423    7.3035 H   0  0  0  0  0  0  0  0  0  0  0  0
  1  2  2  0
  2  3  1  0
  2  5  1  0
  3  4  1  0
  3 27  1  0
  4  6  2  0
  4 24  1  0
  5  6  1  0
  5  7  1  0
  6 22  1  0
  7  8  1  0
  7 28  1  6
  7 29  1  0
  8  9  1  0
  8 12  2  0
  9 10  2  0
  9 30  1  0
 10 11  1  0
 10 31  1  0
 11 13  2  0
 11 32  1  0
 12 13  1  0
 12 33  1  0
 13 14  1  0
 14 15  1  0
 15 16  1  0
 15 34  1  1
 15 35  1  0
 16 17  1  0
 16 36  1  6
 16 37  1  0
 17 18  1  0
 18 19  1  0
 18 38  1  6
 18 39  1  0
 19 20  1  0
 19 40  1  6
 19 41  1  0
 20 21  1  0
 21 22  2  0
 21 23  1  0
 23 24  2  0
 24 25  1  0
 25 26  1  0
 25 42  1  0
 26 43  1  1
 26 44  1  0
 26 45  1  0
M  END
