19967
     RDKit          3D

 40 43  0  0  1  0  0  0  0  0999 V2000
   10.8552   11.5925   14.1892 C   0  0  1  0  0  0  0  0  0  0  0  0
   11.6877   10.4684   14.4337 O   0  0  0  0  0  0  0  0  0  0  0  0
   11.1709    9.4156   15.1612 C   0  0  0  0  0  0  0  0  0  0  0  0
    9.8533    9.3900   15.6860 C   0  0  0  0  0  0  0  0  0  0  0  0
    9.3737    8.2850   16.4266 C   0  0  0  0  0  0  0  0  0  0  0  0
    7.9984    8.2735   16.9650 C   0  0  0  0  0  0  0  0  0  0  0  0
    7.0264    7.3695   16.4520 C   0  0  0  0  0  0  0  0  0  0  0  0
    5.7035    7.3390   16.9502 C   0  0  0  0  0  0  0  0  0  0  0  0
    5.3650    8.2354   17.9780 C   0  0  0  0  0  0  0  0  0  0  0  0
    4.1180    8.4593   18.7045 C   0  0  0  0  0  0  0  0  0  0  0  0
    2.9561    7.7928   18.5088 C   0  0  0  0  0  0  0  0  0  0  0  0
    1.6792    7.8787   19.2205 C   0  0  0  0  0  0  0  0  0  0  0  0
    0.7469    6.9366   19.3341 N   0  0  0  0  0  0  0  0  0  0  0  0
   -0.2572    7.5043   20.1187 C   0  0  0  0  0  0  0  0  0  0  0  0
    0.0983    8.7866   20.4648 C   0  0  0  0  0  0  0  0  0  0  0  0
    1.3354    8.9922   19.8800 N   0  0  0  0  0  0  0  0  0  0  0  0
    4.4040    9.5590   19.6388 C   0  0  0  0  0  0  0  0  0  0  0  0
    3.6526   10.1489   20.4104 O   0  0  0  0  0  0  0  0  0  0  0  0
    5.6991    9.8835   19.4755 N   0  0  0  0  0  0  0  0  0  0  0  0
    6.3036    9.1155   18.4802 C   0  0  0  0  0  0  0  0  0  0  0  0
    7.6227    9.1649   18.0028 C   0  0  0  0  0  0  0  0  0  0  0  0
   10.2418    7.1917   16.6387 C   0  0  0  0  0  0  0  0  0  0  0  0
   11.5509    7.2006   16.1254 C   0  0  0  0  0  0  0  0  0  0  0  0
   12.0141    8.3069   15.3899 C   0  0  0  0  0  0  0  0  0  0  0  0
   13.2883    8.2986   14.8984 O   0  0  0  0  0  0  0  0  0  0  0  0
   11.4071   12.3272   13.6031 H   0  0  0  0  0  0  0  0  0  0  0  0
    9.9679   11.3154   13.6184 H   0  0  0  0  0  0  0  0  0  0  0  0
   10.5522   12.0743   15.1198 H   0  0  0  0  0  0  0  0  0  0  0  0
    9.1880   10.2260   15.5355 H   0  0  0  0  0  0  0  0  0  0  0  0
    7.2974    6.6786   15.6673 H   0  0  0  0  0  0  0  0  0  0  0  0
    4.9798    6.6441   16.5508 H   0  0  0  0  0  0  0  0  0  0  0  0
    2.9710    7.0248   17.7498 H   0  0  0  0  0  0  0  0  0  0  0  0
   -1.1487    6.9491   20.3709 H   0  0  0  0  0  0  0  0  0  0  0  0
   -0.4042    9.5382   21.0558 H   0  0  0  0  0  0  0  0  0  0  0  0
    1.8869    9.8358   19.9420 H   0  0  0  0  0  0  0  0  0  0  0  0
    6.1827   10.6160   19.9739 H   0  0  0  0  0  0  0  0  0  0  0  0
    8.3256    9.8736   18.4156 H   0  0  0  0  0  0  0  0  0  0  0  0
    9.9039    6.3288   17.1938 H   0  0  0  0  0  0  0  0  0  0  0  0
   12.1971    6.3524   16.2979 H   0  0  0  0  0  0  0  0  0  0  0  0
   13.5960    7.4343   14.6737 H   0  0  0  0  0  0  0  0  0  0  0  0
  1  2  1  0
  1 26  1  6
  1 27  1  0
  1 28  1  0
  2  3  1  0
  3 24  1  0
  3  4  2  0
  4  5  1  0
  4 29  1  0
  5  6  1  0
  5 22  2  0
  6 21  1  0
  6  7  2  0
  7  8  1  0
  7 30  1  0
  8  9  2  0
  8 31  1  0
  9 20  1  0
  9 10  1  0
 10 11  2  0
 10 17  1  0
 11 12  1  0
 11 32  1  0
 12 16  1  0
 12 13  2  0
 13 14  1  0
 14 15  2  0
 14 33  1  0
 15 16  1  0
 15 34  1  0
 16 35  1  0
 17 18  2  0
 17 19  1  0
 19 20  1  0
 19 36  1  0
 20 21  2  0
 21 37  1  0
 22 23  1  0
 22 38  1  0
 23 24  2  0
 23 39  1  0
 24 25  1  0
 25 40  1  0
M  END
