5
     RDKit          3D

 20 21  0  0  1  0  0  0  0  0999 V2000
    3.8095  -50.1107    6.6259 O   0  0  0  0  0  0  0  0  0  0  0  0
    2.9489  -49.2039    6.5816 C   0  0  0  0  0  0  0  0  0  0  0  0
    3.2033  -47.9830    6.6909 O   0  0  0  0  0  0  0  0  0  0  0  0
    1.5355  -49.5918    6.4061 C   0  0  0  0  0  0  0  0  0  0  0  0
    1.1014  -51.2476    6.8034 S   0  0  0  0  0  0  0  0  0  0  0  0
   -0.5785  -50.9357    6.4465 C   0  0  0  0  0  0  0  0  0  0  0  0
   -1.6346  -51.8525    6.5596 C   0  0  0  0  0  0  0  0  0  0  0  0
   -2.9169  -51.4257    6.2354 C   0  0  0  0  0  0  0  0  0  0  0  0
   -3.1440  -50.1267    5.8008 C   0  0  0  0  0  0  0  0  0  0  0  0
   -2.0985  -49.2120    5.6728 C   0  0  0  0  0  0  0  0  0  0  0  0
   -0.7807  -49.5940    6.0051 C   0  0  0  0  0  0  0  0  0  0  0  0
    0.4412  -48.8345    5.9712 C   0  0  0  0  0  0  0  0  0  0  0  0
   -1.4621  -52.8651    6.8935 H   0  0  0  0  0  0  0  0  0  0  0  0
   -4.1502  -49.8280    5.5552 H   0  0  0  0  0  0  0  0  0  0  0  0
   -2.3146  -48.2123    5.3262 H   0  0  0  0  0  0  0  0  0  0  0  0
    0.6672  -47.1915    5.4787 Cl  0  0  0  0  0  0  0  0  0  0  0  0
   -4.0854  -52.3941    6.3511 C   0  0  1  0  0  0  0  0  0  0  0  0
   -5.0304  -51.8759    6.0505 H   0  0  0  0  0  0  0  0  0  0  0  0
   -3.9109  -53.2712    5.6786 H   0  0  0  0  0  0  0  0  0  0  0  0
   -4.1739  -52.7470    7.4091 H   0  0  0  0  0  0  0  0  0  0  0  0
  1  2  2  0
  2  3  1  0
  2  4  1  0
  4  5  1  0
  4 12  2  0
  5  6  1  0
  6  7  1  0
  6 11  2  0
  7  8  2  0
  7 13  1  0
  8  9  1  0
  8 17  1  0
  9 10  2  0
  9 14  1  0
 10 11  1  0
 10 15  1  0
 11 12  1  0
 12 16  1  0
 17 18  1  6
 17 19  1  0
 17 20  1  0
M  CHG  1   3  -1
M  END
