15
     RDKit          3D

 31 33  0  0  1  0  0  0  0  0999 V2000
    3.8095  -50.1107    6.6259 O   0  0  0  0  0  0  0  0  0  0  0  0
    2.9489  -49.2039    6.5816 C   0  0  0  0  0  0  0  0  0  0  0  0
    3.2033  -47.9830    6.6909 O   0  0  0  0  0  0  0  0  0  0  0  0
    1.5355  -49.5918    6.4061 C   0  0  0  0  0  0  0  0  0  0  0  0
   -0.5785  -50.9357    6.4465 C   0  0  0  0  0  0  0  0  0  0  0  0
   -1.6346  -51.8525    6.5596 C   0  0  0  0  0  0  0  0  0  0  0  0
   -2.9169  -51.4257    6.2354 C   0  0  0  0  0  0  0  0  0  0  0  0
   -3.1440  -50.1267    5.8008 C   0  0  0  0  0  0  0  0  0  0  0  0
   -2.0985  -49.2120    5.6728 C   0  0  0  0  0  0  0  0  0  0  0  0
   -0.7807  -49.5940    6.0051 C   0  0  0  0  0  0  0  0  0  0  0  0
    0.4412  -48.8345    5.9712 C   0  0  0  0  0  0  0  0  0  0  0  0
   -3.7463  -52.1131    6.3175 H   0  0  0  0  0  0  0  0  0  0  0  0
   -4.1502  -49.8280    5.5552 H   0  0  0  0  0  0  0  0  0  0  0  0
   -2.3146  -48.2123    5.3262 H   0  0  0  0  0  0  0  0  0  0  0  0
    0.9818  -51.0595    6.7312 N   0  0  0  0  0  0  0  0  0  0  0  0
    1.4992  -51.8692    7.0423 H   0  0  0  0  0  0  0  0  0  0  0  0
   -1.3916  -53.2794    7.0301 C   0  0  1  0  0  0  0  0  0  0  0  0
   -2.3616  -53.8367    7.0476 H   0  0  0  0  0  0  0  0  0  0  0  0
   -0.6822  -53.7874    6.3297 H   0  0  0  0  0  0  0  0  0  0  0  0
   -0.9522  -53.2631    8.0590 H   0  0  0  0  0  0  0  0  0  0  0  0
    1.0070  -44.7214    4.7383 C   0  0  0  0  0  0  0  0  0  0  0  0
   -0.2399  -45.1423    5.2291 C   0  0  0  0  0  0  0  0  0  0  0  0
   -0.4234  -46.4761    5.6289 C   0  0  0  0  0  0  0  0  0  0  0  0
    0.6400  -47.3891    5.5379 C   0  0  0  0  0  0  0  0  0  0  0  0
    1.8870  -46.9683    5.0472 C   0  0  0  0  0  0  0  0  0  0  0  0
    2.0705  -45.6344    4.6473 C   0  0  0  0  0  0  0  0  0  0  0  0
    1.1512  -43.6735    4.4242 H   0  0  0  0  0  0  0  0  0  0  0  0
   -1.0753  -44.4249    5.3005 H   0  0  0  0  0  0  0  0  0  0  0  0
   -1.4030  -46.8067    6.0144 H   0  0  0  0  0  0  0  0  0  0  0  0
    2.7223  -47.6856    4.9758 H   0  0  0  0  0  0  0  0  0  0  0  0
    3.0501  -45.3038    4.2618 H   0  0  0  0  0  0  0  0  0  0  0  0
  1  2  2  0
  2  3  1  0
  2  4  1  0
  4 11  2  0
  4 15  1  0
  5  6  1  0
  5 10  2  0
  5 15  1  0
  6  7  2  0
  6 17  1  0
  7  8  1  0
  7 12  1  0
  8  9  2  0
  8 13  1  0
  9 10  1  0
  9 14  1  0
 10 11  1  0
 11 24  1  0
 15 16  1  0
 17 18  1  1
 17 19  1  0
 17 20  1  0
 21 22  2  0
 21 26  1  0
 21 27  1  0
 22 23  1  0
 22 28  1  0
 23 24  2  0
 23 29  1  0
 24 25  1  0
 25 26  2  0
 25 30  1  0
 26 31  1  0
M  CHG  1   3  -1
M  END
