set 2: 2
     RDKit          3D

 54 58  0  0  1  0  0  0  0  0999 V2000
   -2.7530   -0.1092    5.9685 C   0  0  1  0  0  0  0  0  0  0  0  0
   -1.8202   -0.1644    7.1419 C   0  0  0  0  0  0  0  0  0  0  0  0
   -2.2408   -0.7022    8.3571 C   0  0  0  0  0  0  0  0  0  0  0  0
   -1.3560   -0.7430    9.4345 C   0  0  0  0  0  0  0  0  0  0  0  0
   -0.0671   -0.2418    9.2657 C   0  0  0  0  0  0  0  0  0  0  0  0
    0.9211   -0.2632   10.3940 C   0  0  0  0  0  0  0  0  0  0  0  0
    1.0590    0.6497   11.2167 O   0  0  0  0  0  0  0  0  0  0  0  0
    1.6284   -1.4004   10.3897 N   0  0  0  0  0  0  0  0  0  0  0  0
    2.8031   -1.6303   11.2243 C   0  0  2  0  0  0  0  0  0  0  0  0
    2.9518   -3.1791   11.4366 C   0  0  1  0  0  0  0  0  0  0  0  0
    2.0812   -3.6152   12.5865 C   0  0  2  0  0  0  0  0  0  0  0  0
    0.9338   -4.4159   12.0297 N   0  0  0  0  0  0  0  0  0  0  0  0
    1.3723   -4.8360   10.7195 C   0  0  2  0  0  0  0  0  0  0  0  0
    2.2070   -3.7056   10.2003 C   0  0  1  0  0  0  0  0  0  0  0  0
    1.3932   -2.5804    9.5475 C   0  0  2  0  0  0  0  0  0  0  0  0
   -0.4152   -4.1713   12.4007 C   0  0  0  0  0  0  0  0  0  0  0  0
   -0.6465   -3.7186   13.7066 N   0  0  0  0  0  0  0  0  0  0  0  0
   -1.9726   -3.5731   14.0042 C   0  0  0  0  0  0  0  0  0  0  0  0
   -2.3756   -3.1637   15.3673 C   0  0  1  0  0  0  0  0  0  0  0  0
   -2.9728   -3.7973   13.0393 C   0  0  0  0  0  0  0  0  0  0  0  0
   -2.6363   -4.2863   11.8484 C   0  0  0  0  0  0  0  0  0  0  0  0
   -3.6560   -4.4082   10.6496 C   0  0  1  0  0  0  0  0  0  0  0  0
   -1.3444   -4.5719   11.4791 N   0  0  0  0  0  0  0  0  0  0  0  0
    0.2838    0.2811    8.0218 C   0  0  0  0  0  0  0  0  0  0  0  0
   -0.5679    0.3270    6.9643 N   0  0  0  0  0  0  0  0  0  0  0  0
    1.6254    0.8154    7.8070 N   0  0  0  0  0  0  0  0  0  0  0  0
    2.0123    1.3297    6.6281 N   0  0  0  0  0  0  0  0  0  0  0  0
    3.2522    1.6844    6.8609 C   0  0  0  0  0  0  0  0  0  0  0  0
    3.5864    1.3751    8.1789 C   0  0  0  0  0  0  0  0  0  0  0  0
    2.5566    0.8259    8.7751 N   0  0  0  0  0  0  0  0  0  0  0  0
   -3.7165   -0.5340    6.2501 H   0  0  0  0  0  0  0  0  0  0  0  0
   -2.8889    0.9276    5.6609 H   0  0  0  0  0  0  0  0  0  0  0  0
   -2.3313   -0.6812    5.1420 H   0  0  0  0  0  0  0  0  0  0  0  0
   -3.2469   -1.0848    8.4623 H   0  0  0  0  0  0  0  0  0  0  0  0
   -1.6652   -1.1567   10.3848 H   0  0  0  0  0  0  0  0  0  0  0  0
    2.7539   -1.0899   12.1718 H   0  0  0  0  0  0  0  0  0  0  0  0
    3.6722   -1.2438   10.6907 H   0  0  0  0  0  0  0  0  0  0  0  0
    3.9828   -3.5228   11.5302 H   0  0  0  0  0  0  0  0  0  0  0  0
    1.7056   -2.7711   13.1671 H   0  0  0  0  0  0  0  0  0  0  0  0
    2.6411   -4.2457   13.2774 H   0  0  0  0  0  0  0  0  0  0  0  0
    0.5594   -5.0887   10.0383 H   0  0  0  0  0  0  0  0  0  0  0  0
    1.9755   -5.7366   10.8380 H   0  0  0  0  0  0  0  0  0  0  0  0
    2.9180   -4.0863    9.4656 H   0  0  0  0  0  0  0  0  0  0  0  0
    1.7311   -2.3841    8.5293 H   0  0  0  0  0  0  0  0  0  0  0  0
    0.3273   -2.8140    9.5113 H   0  0  0  0  0  0  0  0  0  0  0  0
   -1.5054   -3.0768   16.0187 H   0  0  0  0  0  0  0  0  0  0  0  0
   -2.8777   -2.1970   15.3399 H   0  0  0  0  0  0  0  0  0  0  0  0
   -3.0528   -3.8989   15.8014 H   0  0  0  0  0  0  0  0  0  0  0  0
   -4.0087   -3.5988   13.2726 H   0  0  0  0  0  0  0  0  0  0  0  0
   -3.5814   -3.5336   10.0039 H   0  0  0  0  0  0  0  0  0  0  0  0
   -3.4387   -5.2959   10.0552 H   0  0  0  0  0  0  0  0  0  0  0  0
   -4.6793   -4.4845   11.0161 H   0  0  0  0  0  0  0  0  0  0  0  0
    3.8913    2.1458    6.1173 H   0  0  0  0  0  0  0  0  0  0  0  0
    4.5380    1.5472    8.6680 H   0  0  0  0  0  0  0  0  0  0  0  0
  1  2  1  0
  1 31  1  1
  1 32  1  0
  1 33  1  0
  2  3  2  0
  2 25  1  0
  3  4  1  0
  3 34  1  0
  4  5  2  0
  4 35  1  0
  5  6  1  0
  5 24  1  0
  6  7  2  0
  6  8  1  0
  8  9  1  0
  8 15  1  0
  9 10  1  0
  9 36  1  1
  9 37  1  0
 10 11  1  0
 10 14  1  0
 10 38  1  1
 11 12  1  0
 11 39  1  1
 11 40  1  0
 12 13  1  0
 12 16  1  0
 13 14  1  0
 13 41  1  6
 13 42  1  0
 14 15  1  0
 14 43  1  6
 15 44  1  6
 15 45  1  0
 16 17  2  0
 16 23  1  0
 17 18  1  0
 18 19  1  0
 18 20  2  0
 19 46  1  1
 19 47  1  0
 19 48  1  0
 20 21  1  0
 20 49  1  0
 21 22  1  0
 21 23  2  0
 22 50  1  6
 22 51  1  0
 22 52  1  0
 24 25  2  0
 24 26  1  0
 26 27  1  0
 26 30  1  0
 27 28  2  0
 28 29  1  0
 28 53  1  0
 29 30  2  0
 29 54  1  0
M  END
