set 1: 21
     RDKit          3D

 46 50  0  0  1  0  0  0  0  0999 V2000
    1.2872    0.5189   11.2493 O   0  0  0  0  0  0  0  0  0  0  0  0
    1.2374   -0.2955   10.2863 C   0  0  0  0  0  0  0  0  0  0  0  0
    0.1829   -0.3451    9.2428 C   0  0  0  0  0  0  0  0  0  0  0  0
   -1.1964   -0.5656    9.6549 C   0  0  0  0  0  0  0  0  0  0  0  0
   -1.5785   -0.7618   10.9749 F   0  0  0  0  0  0  0  0  0  0  0  0
   -2.2132   -0.6087    8.7414 C   0  0  0  0  0  0  0  0  0  0  0  0
   -1.8601   -0.5094    7.3309 C   0  0  0  0  0  0  0  0  0  0  0  0
   -0.5320   -0.3242    6.9985 C   0  0  0  0  0  0  0  0  0  0  0  0
    0.4698   -0.0818    7.9111 C   0  0  0  0  0  0  0  0  0  0  0  0
    1.7920    0.2338    7.4004 N   0  0  0  0  0  0  0  0  0  0  0  0
    2.2460   -0.0112    6.1420 N   0  0  0  0  0  0  0  0  0  0  0  0
    3.5033    0.3363    6.1843 C   0  0  0  0  0  0  0  0  0  0  0  0
    3.7718    0.9161    7.4083 C   0  0  0  0  0  0  0  0  0  0  0  0
    2.7091    0.9351    8.1233 N   0  0  0  0  0  0  0  0  0  0  0  0
    2.1529   -1.2760   10.1529 N   0  0  0  0  0  0  0  0  0  0  0  0
    2.0453   -2.5149    9.2816 C   0  0  2  0  0  0  0  0  0  0  0  0
    2.3676   -3.6135   10.2478 C   0  0  2  0  0  0  0  0  0  0  0  0
    1.1704   -4.4908   10.5060 C   0  0  2  0  0  0  0  0  0  0  0  0
    0.7623   -4.2315   11.9121 N   0  0  0  0  0  0  0  0  0  0  0  0
    1.8018   -3.3186   12.4994 C   0  0  2  0  0  0  0  0  0  0  0  0
    2.9019   -3.0312   11.5568 C   0  0  2  0  0  0  0  0  0  0  0  0
    3.1240   -1.5230   11.2307 C   0  0  2  0  0  0  0  0  0  0  0  0
   -0.5948   -4.2131   12.3776 C   0  0  0  0  0  0  0  0  0  0  0  0
   -1.5984   -4.5771   11.5085 N   0  0  0  0  0  0  0  0  0  0  0  0
   -2.8668   -4.5702   11.9600 C   0  0  0  0  0  0  0  0  0  0  0  0
   -3.2009   -4.1634   13.2655 C   0  0  0  0  0  0  0  0  0  0  0  0
   -4.4907   -4.1106   13.6775 F   0  0  0  0  0  0  0  0  0  0  0  0
   -2.1685   -3.9023   14.1238 C   0  0  0  0  0  0  0  0  0  0  0  0
   -0.8756   -3.9276   13.7033 N   0  0  0  0  0  0  0  0  0  0  0  0
   -3.2348   -0.7654    9.0562 H   0  0  0  0  0  0  0  0  0  0  0  0
   -2.6171   -0.5962    6.5647 H   0  0  0  0  0  0  0  0  0  0  0  0
   -0.2999   -0.2405    5.9457 H   0  0  0  0  0  0  0  0  0  0  0  0
    4.1541    0.2047    5.3316 H   0  0  0  0  0  0  0  0  0  0  0  0
    4.6916    1.3585    7.7640 H   0  0  0  0  0  0  0  0  0  0  0  0
    2.8048   -2.4476    8.5014 H   0  0  0  0  0  0  0  0  0  0  0  0
    1.0867   -2.6522    8.7828 H   0  0  0  0  0  0  0  0  0  0  0  0
    3.1432   -4.2318    9.7924 H   0  0  0  0  0  0  0  0  0  0  0  0
    1.4416   -5.5438   10.4258 H   0  0  0  0  0  0  0  0  0  0  0  0
    0.3412   -4.3255    9.8175 H   0  0  0  0  0  0  0  0  0  0  0  0
    2.1881   -3.7692   13.4143 H   0  0  0  0  0  0  0  0  0  0  0  0
    1.3062   -2.3949   12.8046 H   0  0  0  0  0  0  0  0  0  0  0  0
    3.8211   -3.5229   11.8787 H   0  0  0  0  0  0  0  0  0  0  0  0
    3.0226   -0.9019   12.1226 H   0  0  0  0  0  0  0  0  0  0  0  0
    4.1250   -1.3558   10.8323 H   0  0  0  0  0  0  0  0  0  0  0  0
   -3.6356   -4.8373   11.2503 H   0  0  0  0  0  0  0  0  0  0  0  0
   -2.3479   -3.6362   15.1549 H   0  0  0  0  0  0  0  0  0  0  0  0
  1  2  2  0
  2  3  1  0
  2 15  1  0
  3  4  2  0
  3  9  1  0
  4  5  1  0
  4  6  1  0
  6  7  2  0
  6 30  1  0
  7  8  1  0
  7 31  1  0
  8  9  2  0
  8 32  1  0
  9 10  1  0
 10 11  1  0
 10 14  1  0
 11 12  2  0
 12 13  1  0
 12 33  1  0
 13 14  2  0
 13 34  1  0
 15 16  1  0
 15 22  1  0
 16 17  1  0
 16 35  1  6
 16 36  1  0
 17 18  1  0
 17 21  1  0
 17 37  1  6
 18 19  1  0
 18 38  1  1
 18 39  1  0
 19 20  1  0
 19 23  1  0
 20 21  1  0
 20 40  1  1
 20 41  1  0
 21 22  1  0
 21 42  1  1
 22 43  1  1
 22 44  1  0
 23 24  2  0
 23 29  1  0
 24 25  1  0
 25 26  2  0
 25 45  1  0
 26 27  1  0
 26 28  1  0
 28 29  2  0
 28 46  1  0
M  END
