set 2: 16
     RDKit          3D

 58 63  0  0  1  0  0  0  0  0999 V2000
   -3.4521   -4.5498   10.4414 C   0  0  1  0  0  0  0  0  0  0  0  0
   -2.5452   -4.3434   11.7168 C   0  0  0  0  0  0  0  0  0  0  0  0
   -2.9880   -3.7789   12.8374 C   0  0  0  0  0  0  0  0  0  0  0  0
   -2.0793   -3.4860   13.8719 C   0  0  0  0  0  0  0  0  0  0  0  0
   -2.6040   -2.9900   15.1628 C   0  0  1  0  0  0  0  0  0  0  0  0
   -0.7317   -3.6430   13.7057 N   0  0  0  0  0  0  0  0  0  0  0  0
   -0.3832   -4.1795   12.4588 C   0  0  0  0  0  0  0  0  0  0  0  0
   -1.2252   -4.6452   11.4854 N   0  0  0  0  0  0  0  0  0  0  0  0
    0.9938   -4.4401   12.2283 N   0  0  0  0  0  0  0  0  0  0  0  0
    1.5492   -4.9431   10.9937 C   0  0  2  0  0  0  0  0  0  0  0  0
    2.4276   -3.8446   10.4785 C   0  0  1  0  0  0  0  0  0  0  0  0
    1.6766   -2.7695    9.6818 C   0  0  2  0  0  0  0  0  0  0  0  0
    1.8348   -1.5353   10.4619 N   0  0  0  0  0  0  0  0  0  0  0  0
    2.9290   -1.7029   11.4127 C   0  0  2  0  0  0  0  0  0  0  0  0
    3.0576   -3.2335   11.7395 C   0  0  1  0  0  0  0  0  0  0  0  0
    2.0863   -3.5979   12.8323 C   0  0  2  0  0  0  0  0  0  0  0  0
    1.1302   -0.4044   10.3271 C   0  0  0  0  0  0  0  0  0  0  0  0
    1.1932    0.5615   11.0967 O   0  0  0  0  0  0  0  0  0  0  0  0
    0.0297   -0.3410    9.2547 C   0  0  0  0  0  0  0  0  0  0  0  0
   -1.2834   -0.6919    9.5792 C   0  0  0  0  0  0  0  0  0  0  0  0
   -2.3079   -0.4353    8.6899 C   0  0  0  0  0  0  0  0  0  0  0  0
   -2.0116   -0.0091    7.4296 C   0  0  0  0  0  0  0  0  0  0  0  0
   -3.1799    0.1737    6.6465 C   0  0  0  0  0  0  0  0  0  0  0  0
   -3.1096    0.6527    5.3414 C   0  0  0  0  0  0  0  0  0  0  0  0
   -1.8526    1.0144    4.8752 C   0  0  0  0  0  0  0  0  0  0  0  0
   -0.7249    0.8209    5.6935 C   0  0  0  0  0  0  0  0  0  0  0  0
   -0.7058    0.1684    6.9928 C   0  0  0  0  0  0  0  0  0  0  0  0
    0.3672   -0.0475    7.8889 C   0  0  0  0  0  0  0  0  0  0  0  0
    1.7010    0.1459    7.3596 N   0  0  0  0  0  0  0  0  0  0  0  0
    2.8263    0.4352    8.0847 N   0  0  0  0  0  0  0  0  0  0  0  0
    3.7575    0.7383    7.2066 C   0  0  0  0  0  0  0  0  0  0  0  0
    3.1153    0.6085    5.9243 C   0  0  0  0  0  0  0  0  0  0  0  0
    1.8469    0.2624    6.0346 N   0  0  0  0  0  0  0  0  0  0  0  0
   -4.4998   -4.6529   10.7224 H   0  0  0  0  0  0  0  0  0  0  0  0
   -3.3525   -3.6974    9.7696 H   0  0  0  0  0  0  0  0  0  0  0  0
   -3.1525   -5.4494    9.9031 H   0  0  0  0  0  0  0  0  0  0  0  0
   -4.0410   -3.5730   12.9629 H   0  0  0  0  0  0  0  0  0  0  0  0
   -3.0611   -2.0092   15.0339 H   0  0  0  0  0  0  0  0  0  0  0  0
   -3.3513   -3.6762   15.5604 H   0  0  0  0  0  0  0  0  0  0  0  0
   -1.8025   -2.8982   15.8966 H   0  0  0  0  0  0  0  0  0  0  0  0
    0.8014   -5.2444   10.2596 H   0  0  0  0  0  0  0  0  0  0  0  0
    2.1389   -5.8306   11.2250 H   0  0  0  0  0  0  0  0  0  0  0  0
    3.2019   -4.2681    9.8372 H   0  0  0  0  0  0  0  0  0  0  0  0
    0.6218   -3.0225    9.5601 H   0  0  0  0  0  0  0  0  0  0  0  0
    2.1088   -2.6366    8.6891 H   0  0  0  0  0  0  0  0  0  0  0  0
    2.7961   -1.0997   12.3129 H   0  0  0  0  0  0  0  0  0  0  0  0
    3.8404   -1.3467   10.9308 H   0  0  0  0  0  0  0  0  0  0  0  0
    4.0759   -3.5641   11.9478 H   0  0  0  0  0  0  0  0  0  0  0  0
    2.5813   -4.1786   13.6108 H   0  0  0  0  0  0  0  0  0  0  0  0
    1.6604   -2.7196   13.3198 H   0  0  0  0  0  0  0  0  0  0  0  0
   -1.5160   -1.0131   10.5853 H   0  0  0  0  0  0  0  0  0  0  0  0
   -3.3262   -0.6067    9.0098 H   0  0  0  0  0  0  0  0  0  0  0  0
   -4.1591   -0.0419    7.0502 H   0  0  0  0  0  0  0  0  0  0  0  0
   -3.9978    0.8006    4.7442 H   0  0  0  0  0  0  0  0  0  0  0  0
   -1.7482    1.4836    3.9074 H   0  0  0  0  0  0  0  0  0  0  0  0
    0.0996    1.3192    5.2217 H   0  0  0  0  0  0  0  0  0  0  0  0
    4.7655    1.0126    7.4831 H   0  0  0  0  0  0  0  0  0  0  0  0
    3.5492    0.7742    4.9487 H   0  0  0  0  0  0  0  0  0  0  0  0
  1  2  1  0
  1 34  1  1
  1 35  1  0
  1 36  1  0
  2  3  2  0
  2  8  1  0
  3  4  1  0
  3 37  1  0
  4  5  1  0
  4  6  2  0
  5 38  1  6
  5 39  1  0
  5 40  1  0
  6  7  1  0
  7  8  2  0
  7  9  1  0
  9 10  1  0
  9 16  1  0
 10 11  1  0
 10 41  1  6
 10 42  1  0
 11 12  1  0
 11 15  1  0
 11 43  1  6
 12 13  1  0
 12 44  1  6
 12 45  1  0
 13 14  1  0
 13 17  1  0
 14 15  1  0
 14 46  1  1
 14 47  1  0
 15 16  1  0
 15 48  1  1
 16 49  1  1
 16 50  1  0
 17 18  2  0
 17 19  1  0
 19 20  2  0
 19 28  1  0
 20 21  1  0
 20 51  1  0
 21 22  2  0
 21 52  1  0
 22 23  1  0
 22 27  1  0
 23 24  2  0
 23 53  1  0
 24 25  1  0
 24 54  1  0
 25 26  2  0
 25 55  1  0
 26 27  1  0
 26 56  1  0
 27 28  2  0
 28 29  1  0
 29 30  1  0
 29 33  1  0
 30 31  2  0
 31 32  1  0
 31 57  1  0
 32 33  2  0
 32 58  1  0
M  END
