set 2: 23
     RDKit          3D

 52 56  0  0  1  0  0  0  0  0999 V2000
   -3.4521   -4.5498   10.4414 C   0  0  1  0  0  0  0  0  0  0  0  0
   -2.5452   -4.3434   11.7168 C   0  0  0  0  0  0  0  0  0  0  0  0
   -2.9880   -3.7789   12.8374 C   0  0  0  0  0  0  0  0  0  0  0  0
   -2.0793   -3.4860   13.8719 C   0  0  0  0  0  0  0  0  0  0  0  0
   -2.6040   -2.9900   15.1628 C   0  0  1  0  0  0  0  0  0  0  0  0
   -0.7317   -3.6430   13.7057 N   0  0  0  0  0  0  0  0  0  0  0  0
   -0.3832   -4.1795   12.4588 C   0  0  0  0  0  0  0  0  0  0  0  0
   -1.2252   -4.6452   11.4854 N   0  0  0  0  0  0  0  0  0  0  0  0
    0.9938   -4.4401   12.2283 N   0  0  0  0  0  0  0  0  0  0  0  0
    1.5492   -4.9431   10.9937 C   0  0  2  0  0  0  0  0  0  0  0  0
    2.4276   -3.8446   10.4785 C   0  0  1  0  0  0  0  0  0  0  0  0
    1.6766   -2.7695    9.6818 C   0  0  2  0  0  0  0  0  0  0  0  0
    1.8348   -1.5353   10.4619 N   0  0  0  0  0  0  0  0  0  0  0  0
    2.9290   -1.7029   11.4127 C   0  0  2  0  0  0  0  0  0  0  0  0
    3.0576   -3.2335   11.7395 C   0  0  1  0  0  0  0  0  0  0  0  0
    2.0863   -3.5979   12.8323 C   0  0  2  0  0  0  0  0  0  0  0  0
    1.1302   -0.4044   10.3271 C   0  0  0  0  0  0  0  0  0  0  0  0
    1.1932    0.5615   11.0967 O   0  0  0  0  0  0  0  0  0  0  0  0
    0.0297   -0.3410    9.2547 C   0  0  0  0  0  0  0  0  0  0  0  0
   -1.2834   -0.6919    9.5792 C   0  0  0  0  0  0  0  0  0  0  0  0
   -2.3079   -0.4353    8.6899 C   0  0  0  0  0  0  0  0  0  0  0  0
   -2.0116   -0.0091    7.4296 C   0  0  0  0  0  0  0  0  0  0  0  0
   -3.0074    0.2624    6.5561 F   0  0  0  0  0  0  0  0  0  0  0  0
   -0.7058    0.1684    6.9928 C   0  0  0  0  0  0  0  0  0  0  0  0
    0.3672   -0.0475    7.8889 C   0  0  0  0  0  0  0  0  0  0  0  0
    1.7010    0.1459    7.3596 N   0  0  0  0  0  0  0  0  0  0  0  0
    2.8263    0.4352    8.0847 N   0  0  0  0  0  0  0  0  0  0  0  0
    3.7575    0.7383    7.2066 C   0  0  0  0  0  0  0  0  0  0  0  0
    3.1153    0.6085    5.9243 C   0  0  0  0  0  0  0  0  0  0  0  0
    1.8469    0.2624    6.0346 N   0  0  0  0  0  0  0  0  0  0  0  0
   -4.4565   -4.1531   10.5936 H   0  0  0  0  0  0  0  0  0  0  0  0
   -3.0173   -4.0436    9.5787 H   0  0  0  0  0  0  0  0  0  0  0  0
   -3.5406   -5.6111   10.2063 H   0  0  0  0  0  0  0  0  0  0  0  0
   -4.0316   -3.5373   12.9771 H   0  0  0  0  0  0  0  0  0  0  0  0
   -3.6939   -2.9527   15.1655 H   0  0  0  0  0  0  0  0  0  0  0  0
   -2.2879   -3.6410   15.9789 H   0  0  0  0  0  0  0  0  0  0  0  0
   -2.2315   -1.9848   15.3631 H   0  0  0  0  0  0  0  0  0  0  0  0
    0.7530   -5.1764   10.2850 H   0  0  0  0  0  0  0  0  0  0  0  0
    2.1091   -5.8587   11.1887 H   0  0  0  0  0  0  0  0  0  0  0  0
    3.2441   -4.2596    9.8846 H   0  0  0  0  0  0  0  0  0  0  0  0
    0.6050   -2.9744    9.6980 H   0  0  0  0  0  0  0  0  0  0  0  0
    2.0391   -2.7045    8.6577 H   0  0  0  0  0  0  0  0  0  0  0  0
    2.8072   -1.1451   12.3424 H   0  0  0  0  0  0  0  0  0  0  0  0
    3.8649   -1.3978   10.9422 H   0  0  0  0  0  0  0  0  0  0  0  0
    4.0934   -3.5562   11.8589 H   0  0  0  0  0  0  0  0  0  0  0  0
    2.6075   -4.1628   13.6062 H   0  0  0  0  0  0  0  0  0  0  0  0
    1.6480   -2.7095   13.2897 H   0  0  0  0  0  0  0  0  0  0  0  0
   -1.5048   -1.1743   10.5211 H   0  0  0  0  0  0  0  0  0  0  0  0
   -3.3344   -0.5748    8.9954 H   0  0  0  0  0  0  0  0  0  0  0  0
   -0.5350    0.4836    5.9732 H   0  0  0  0  0  0  0  0  0  0  0  0
    4.7640    1.0120    7.4873 H   0  0  0  0  0  0  0  0  0  0  0  0
    3.5581    0.7584    4.9506 H   0  0  0  0  0  0  0  0  0  0  0  0
  1  2  1  0
  1 31  1  1
  1 32  1  0
  1 33  1  0
  2  3  2  0
  2  8  1  0
  3  4  1  0
  3 34  1  0
  4  5  1  0
  4  6  2  0
  5 35  1  6
  5 36  1  0
  5 37  1  0
  6  7  1  0
  7  8  2  0
  7  9  1  0
  9 10  1  0
  9 16  1  0
 10 11  1  0
 10 38  1  6
 10 39  1  0
 11 12  1  0
 11 15  1  0
 11 40  1  6
 12 13  1  0
 12 41  1  6
 12 42  1  0
 13 14  1  0
 13 17  1  0
 14 15  1  0
 14 43  1  1
 14 44  1  0
 15 16  1  0
 15 45  1  1
 16 46  1  1
 16 47  1  0
 17 18  2  0
 17 19  1  0
 19 20  2  0
 19 25  1  0
 20 21  1  0
 20 48  1  0
 21 22  2  0
 21 49  1  0
 22 23  1  0
 22 24  1  0
 24 25  2  0
 24 50  1  0
 25 26  1  0
 26 27  1  0
 26 30  1  0
 27 28  2  0
 28 29  1  0
 28 51  1  0
 29 30  2  0
 29 52  1  0
M  END
