set 1: 22
     RDKit          3D

 50 54  0  0  1  0  0  0  0  0999 V2000
   -3.9684   -4.4718   10.8829 C   0  0  1  0  0  0  0  0  0  0  0  0
   -2.9159   -4.4711   11.9677 C   0  0  0  0  0  0  0  0  0  0  0  0
   -3.1974   -4.1922   13.2767 C   0  0  0  0  0  0  0  0  0  0  0  0
   -2.1226   -3.8045   14.0989 C   0  0  0  0  0  0  0  0  0  0  0  0
   -2.2167   -3.4204   15.5946 C   0  0  0  0  0  0  0  0  0  0  0  0
   -2.3183   -3.1383   16.7120 N   0  0  0  0  0  0  0  0  0  0  0  0
   -0.8444   -3.8322   13.6767 N   0  0  0  0  0  0  0  0  0  0  0  0
   -0.5948   -4.2131   12.3776 C   0  0  0  0  0  0  0  0  0  0  0  0
   -1.6370   -4.4807   11.5059 N   0  0  0  0  0  0  0  0  0  0  0  0
    0.7623   -4.2315   11.9121 N   0  0  0  0  0  0  0  0  0  0  0  0
    1.1704   -4.4908   10.5060 C   0  0  2  0  0  0  0  0  0  0  0  0
    2.3676   -3.6135   10.2478 C   0  0  1  0  0  0  0  0  0  0  0  0
    2.0453   -2.5149    9.2816 C   0  0  2  0  0  0  0  0  0  0  0  0
    2.1529   -1.2760   10.1529 N   0  0  0  0  0  0  0  0  0  0  0  0
    3.1240   -1.5230   11.2307 C   0  0  2  0  0  0  0  0  0  0  0  0
    2.9019   -3.0312   11.5568 C   0  0  1  0  0  0  0  0  0  0  0  0
    1.8018   -3.3186   12.4994 C   0  0  2  0  0  0  0  0  0  0  0  0
    1.2374   -0.2955   10.2863 C   0  0  0  0  0  0  0  0  0  0  0  0
    1.2872    0.5189   11.2493 O   0  0  0  0  0  0  0  0  0  0  0  0
    0.1829   -0.3451    9.2428 C   0  0  0  0  0  0  0  0  0  0  0  0
   -1.1964   -0.5656    9.6549 C   0  0  0  0  0  0  0  0  0  0  0  0
   -1.5785   -0.7618   10.9749 F   0  0  0  0  0  0  0  0  0  0  0  0
   -2.2132   -0.6087    8.7414 C   0  0  0  0  0  0  0  0  0  0  0  0
   -1.8601   -0.5094    7.3309 C   0  0  0  0  0  0  0  0  0  0  0  0
   -0.5320   -0.3242    6.9985 C   0  0  0  0  0  0  0  0  0  0  0  0
    0.4698   -0.0818    7.9111 C   0  0  0  0  0  0  0  0  0  0  0  0
    1.7920    0.2338    7.4004 N   0  0  0  0  0  0  0  0  0  0  0  0
    2.2460   -0.0112    6.1420 N   0  0  0  0  0  0  0  0  0  0  0  0
    3.5033    0.3363    6.1843 C   0  0  0  0  0  0  0  0  0  0  0  0
    3.7718    0.9161    7.4083 C   0  0  0  0  0  0  0  0  0  0  0  0
    2.7091    0.9351    8.1233 N   0  0  0  0  0  0  0  0  0  0  0  0
   -4.9440   -4.2651   11.3230 H   0  0  0  0  0  0  0  0  0  0  0  0
   -3.7319   -3.7037   10.1466 H   0  0  0  0  0  0  0  0  0  0  0  0
   -3.9885   -5.4472   10.3967 H   0  0  0  0  0  0  0  0  0  0  0  0
   -4.1930   -4.2842   13.6828 H   0  0  0  0  0  0  0  0  0  0  0  0
    0.3173   -4.2656    9.8642 H   0  0  0  0  0  0  0  0  0  0  0  0
    1.3887   -5.5520   10.3811 H   0  0  0  0  0  0  0  0  0  0  0  0
    3.2140   -4.2193    9.9208 H   0  0  0  0  0  0  0  0  0  0  0  0
    1.0910   -2.6908    8.7852 H   0  0  0  0  0  0  0  0  0  0  0  0
    2.8041   -2.4669    8.4994 H   0  0  0  0  0  0  0  0  0  0  0  0
    2.9684   -0.8810   12.1005 H   0  0  0  0  0  0  0  0  0  0  0  0
    4.1278   -1.3243   10.8533 H   0  0  0  0  0  0  0  0  0  0  0  0
    3.8461   -3.5080   11.8248 H   0  0  0  0  0  0  0  0  0  0  0  0
    2.2085   -3.8012   13.3891 H   0  0  0  0  0  0  0  0  0  0  0  0
    1.3311   -2.3939   12.8361 H   0  0  0  0  0  0  0  0  0  0  0  0
   -3.2347   -0.6896    9.0842 H   0  0  0  0  0  0  0  0  0  0  0  0
   -2.6297   -0.5451    6.5734 H   0  0  0  0  0  0  0  0  0  0  0  0
   -0.2541   -0.4406    5.9604 H   0  0  0  0  0  0  0  0  0  0  0  0
    4.1408    0.1784    5.3261 H   0  0  0  0  0  0  0  0  0  0  0  0
    4.6859    1.3171    7.8223 H   0  0  0  0  0  0  0  0  0  0  0  0
  1  2  1  0
  1 32  1  1
  1 33  1  0
  1 34  1  0
  2  3  2  0
  2  9  1  0
  3  4  1  0
  3 35  1  0
  4  5  1  0
  4  7  2  0
  5  6  3  0
  7  8  1  0
  8  9  2  0
  8 10  1  0
 10 11  1  0
 10 17  1  0
 11 12  1  0
 11 36  1  6
 11 37  1  0
 12 13  1  0
 12 16  1  0
 12 38  1  6
 13 14  1  0
 13 39  1  6
 13 40  1  0
 14 15  1  0
 14 18  1  0
 15 16  1  0
 15 41  1  1
 15 42  1  0
 16 17  1  0
 16 43  1  1
 17 44  1  1
 17 45  1  0
 18 19  2  0
 18 20  1  0
 20 21  2  0
 20 26  1  0
 21 22  1  0
 21 23  1  0
 23 24  2  0
 23 46  1  0
 24 25  1  0
 24 47  1  0
 25 26  2  0
 25 48  1  0
 26 27  1  0
 27 28  1  0
 27 31  1  0
 28 29  2  0
 29 30  1  0
 29 49  1  0
 30 31  2  0
 30 50  1  0
M  END
