set 1: 20
     RDKit          3D

 52 56  0  0  1  0  0  0  0  0999 V2000
   -4.6017   -4.3284   13.7861 C   0  0  1  0  0  0  0  0  0  0  0  0
   -3.1976   -4.1924   13.2761 C   0  0  0  0  0  0  0  0  0  0  0  0
   -2.1183   -3.8522   14.1133 C   0  0  0  0  0  0  0  0  0  0  0  0
   -0.8403   -3.8806   13.6907 N   0  0  0  0  0  0  0  0  0  0  0  0
   -0.5948   -4.2131   12.3776 C   0  0  0  0  0  0  0  0  0  0  0  0
   -1.6398   -4.4318   11.4957 N   0  0  0  0  0  0  0  0  0  0  0  0
   -2.9189   -4.4231   11.9572 C   0  0  0  0  0  0  0  0  0  0  0  0
   -3.9704   -4.3665   10.8729 C   0  0  1  0  0  0  0  0  0  0  0  0
    0.7623   -4.2315   11.9121 N   0  0  0  0  0  0  0  0  0  0  0  0
    1.8018   -3.3186   12.4994 C   0  0  2  0  0  0  0  0  0  0  0  0
    2.9019   -3.0312   11.5568 C   0  0  2  0  0  0  0  0  0  0  0  0
    3.1240   -1.5230   11.2307 C   0  0  2  0  0  0  0  0  0  0  0  0
    2.1529   -1.2760   10.1529 N   0  0  0  0  0  0  0  0  0  0  0  0
    2.0453   -2.5149    9.2816 C   0  0  2  0  0  0  0  0  0  0  0  0
    2.3676   -3.6135   10.2478 C   0  0  2  0  0  0  0  0  0  0  0  0
    1.1704   -4.4908   10.5060 C   0  0  2  0  0  0  0  0  0  0  0  0
    1.2374   -0.2955   10.2863 C   0  0  0  0  0  0  0  0  0  0  0  0
    1.2872    0.5189   11.2493 O   0  0  0  0  0  0  0  0  0  0  0  0
    0.1829   -0.3451    9.2428 C   0  0  0  0  0  0  0  0  0  0  0  0
   -1.1964   -0.5656    9.6549 C   0  0  0  0  0  0  0  0  0  0  0  0
   -1.5785   -0.7618   10.9749 F   0  0  0  0  0  0  0  0  0  0  0  0
   -2.2132   -0.6087    8.7414 C   0  0  0  0  0  0  0  0  0  0  0  0
   -1.8601   -0.5094    7.3309 C   0  0  0  0  0  0  0  0  0  0  0  0
   -0.5320   -0.3242    6.9985 C   0  0  0  0  0  0  0  0  0  0  0  0
    0.4698   -0.0818    7.9111 C   0  0  0  0  0  0  0  0  0  0  0  0
    1.7920    0.2338    7.4004 N   0  0  0  0  0  0  0  0  0  0  0  0
    2.7091    0.9351    8.1233 N   0  0  0  0  0  0  0  0  0  0  0  0
    3.7718    0.9161    7.4083 C   0  0  0  0  0  0  0  0  0  0  0  0
    3.5033    0.3363    6.1843 C   0  0  0  0  0  0  0  0  0  0  0  0
    2.2460   -0.0112    6.1420 N   0  0  0  0  0  0  0  0  0  0  0  0
   -5.2632   -4.5964   12.9623 H   0  0  0  0  0  0  0  0  0  0  0  0
   -4.6375   -5.1064   14.5487 H   0  0  0  0  0  0  0  0  0  0  0  0
   -4.9247   -3.3811   14.2180 H   0  0  0  0  0  0  0  0  0  0  0  0
   -2.3051   -3.5222   15.1244 H   0  0  0  0  0  0  0  0  0  0  0  0
   -3.8537   -3.4544   10.2877 H   0  0  0  0  0  0  0  0  0  0  0  0
   -3.8732   -5.2198   10.2010 H   0  0  0  0  0  0  0  0  0  0  0  0
   -4.9749   -4.3803   11.2952 H   0  0  0  0  0  0  0  0  0  0  0  0
    2.2097   -3.7975   13.3906 H   0  0  0  0  0  0  0  0  0  0  0  0
    1.3546   -2.3785   12.8262 H   0  0  0  0  0  0  0  0  0  0  0  0
    3.8252   -3.4913   11.9114 H   0  0  0  0  0  0  0  0  0  0  0  0
    4.1431   -1.3452   10.8852 H   0  0  0  0  0  0  0  0  0  0  0  0
    2.9627   -0.8964   12.1098 H   0  0  0  0  0  0  0  0  0  0  0  0
    2.7750   -2.4246    8.4758 H   0  0  0  0  0  0  0  0  0  0  0  0
    1.0614   -2.6001    8.8185 H   0  0  0  0  0  0  0  0  0  0  0  0
    3.1115   -4.2496    9.7662 H   0  0  0  0  0  0  0  0  0  0  0  0
    0.3597   -4.2710    9.8103 H   0  0  0  0  0  0  0  0  0  0  0  0
    1.4294   -5.5447   10.3992 H   0  0  0  0  0  0  0  0  0  0  0  0
   -3.2294   -0.6871    9.0992 H   0  0  0  0  0  0  0  0  0  0  0  0
   -2.6127   -0.5521    6.5571 H   0  0  0  0  0  0  0  0  0  0  0  0
   -0.2837   -0.4148    5.9510 H   0  0  0  0  0  0  0  0  0  0  0  0
    4.6426    1.4975    7.6752 H   0  0  0  0  0  0  0  0  0  0  0  0
    4.1862    0.0376    5.4022 H   0  0  0  0  0  0  0  0  0  0  0  0
  1  2  1  0
  1 31  1  6
  1 32  1  0
  1 33  1  0
  2  3  2  0
  2  7  1  0
  3  4  1  0
  3 34  1  0
  4  5  2  0
  5  6  1  0
  5  9  1  0
  6  7  2  0
  7  8  1  0
  8 35  1  6
  8 36  1  0
  8 37  1  0
  9 10  1  0
  9 16  1  0
 10 11  1  0
 10 38  1  1
 10 39  1  0
 11 12  1  0
 11 15  1  0
 11 40  1  1
 12 13  1  0
 12 41  1  6
 12 42  1  0
 13 14  1  0
 13 17  1  0
 14 15  1  0
 14 43  1  6
 14 44  1  0
 15 16  1  0
 15 45  1  6
 16 46  1  6
 16 47  1  0
 17 18  2  0
 17 19  1  0
 19 20  2  0
 19 25  1  0
 20 21  1  0
 20 22  1  0
 22 23  2  0
 22 48  1  0
 23 24  1  0
 23 49  1  0
 24 25  2  0
 24 50  1  0
 25 26  1  0
 26 27  1  0
 26 30  1  0
 27 28  2  0
 28 29  1  0
 28 51  1  0
 29 30  2  0
 29 52  1  0
M  END
