set 1: 15
     RDKit          3D

 59 63  0  0  1  0  0  0  0  0999 V2000
   -6.9287   -3.7680   12.9333 C   0  0  1  0  0  0  0  0  0  0  0  0
   -5.4773   -3.8354   12.7906 N   0  0  0  0  0  0  0  0  0  0  0  0
   -5.1137   -3.4321   11.4353 C   0  0  1  0  0  0  0  0  0  0  0  0
   -4.6219   -4.2054   13.7441 C   0  0  0  0  0  0  0  0  0  0  0  0
   -4.9810   -4.5360   14.8703 O   0  0  0  0  0  0  0  0  0  0  0  0
   -3.2009   -4.1634   13.2655 C   0  0  0  0  0  0  0  0  0  0  0  0
   -2.8668   -4.5702   11.9600 C   0  0  0  0  0  0  0  0  0  0  0  0
   -1.5984   -4.5771   11.5085 N   0  0  0  0  0  0  0  0  0  0  0  0
   -0.5948   -4.2131   12.3776 C   0  0  0  0  0  0  0  0  0  0  0  0
   -0.8756   -3.9276   13.7033 N   0  0  0  0  0  0  0  0  0  0  0  0
   -2.1685   -3.9023   14.1237 C   0  0  0  0  0  0  0  0  0  0  0  0
   -2.3332   -3.8851   15.6262 C   0  0  1  0  0  0  0  0  0  0  0  0
   -3.6203   -3.7544   15.9584 F   0  0  0  0  0  0  0  0  0  0  0  0
   -1.8831   -5.0268   16.1508 F   0  0  0  0  0  0  0  0  0  0  0  0
   -1.6612   -2.8664   16.1660 F   0  0  0  0  0  0  0  0  0  0  0  0
    0.7623   -4.2315   11.9120 N   0  0  0  0  0  0  0  0  0  0  0  0
    1.8018   -3.3186   12.4994 C   0  0  2  0  0  0  0  0  0  0  0  0
    2.9019   -3.0312   11.5568 C   0  0  2  0  0  0  0  0  0  0  0  0
    3.1240   -1.5230   11.2307 C   0  0  2  0  0  0  0  0  0  0  0  0
    2.1529   -1.2760   10.1529 N   0  0  0  0  0  0  0  0  0  0  0  0
    2.0453   -2.5149    9.2816 C   0  0  2  0  0  0  0  0  0  0  0  0
    2.3676   -3.6135   10.2478 C   0  0  2  0  0  0  0  0  0  0  0  0
    1.1704   -4.4908   10.5060 C   0  0  2  0  0  0  0  0  0  0  0  0
    1.2374   -0.2955   10.2863 C   0  0  0  0  0  0  0  0  0  0  0  0
    1.2872    0.5189   11.2493 O   0  0  0  0  0  0  0  0  0  0  0  0
    0.1829   -0.3451    9.2428 C   0  0  0  0  0  0  0  0  0  0  0  0
   -1.1964   -0.5656    9.6549 C   0  0  0  0  0  0  0  0  0  0  0  0
   -1.5785   -0.7618   10.9749 F   0  0  0  0  0  0  0  0  0  0  0  0
   -2.2132   -0.6087    8.7414 C   0  0  0  0  0  0  0  0  0  0  0  0
   -1.8601   -0.5094    7.3309 C   0  0  0  0  0  0  0  0  0  0  0  0
   -0.5320   -0.3242    6.9985 C   0  0  0  0  0  0  0  0  0  0  0  0
    0.4698   -0.0818    7.9111 C   0  0  0  0  0  0  0  0  0  0  0  0
    1.7920    0.2338    7.4004 N   0  0  0  0  0  0  0  0  0  0  0  0
    2.2460   -0.0112    6.1420 N   0  0  0  0  0  0  0  0  0  0  0  0
    3.5033    0.3363    6.1843 C   0  0  0  0  0  0  0  0  0  0  0  0
    3.7718    0.9161    7.4083 C   0  0  0  0  0  0  0  0  0  0  0  0
    2.7091    0.9351    8.1233 N   0  0  0  0  0  0  0  0  0  0  0  0
   -7.2088   -4.0678   13.9431 H   0  0  0  0  0  0  0  0  0  0  0  0
   -7.2648   -2.7473   12.7508 H   0  0  0  0  0  0  0  0  0  0  0  0
   -7.3962   -4.4387   12.2123 H   0  0  0  0  0  0  0  0  0  0  0  0
   -4.0308   -3.4796   11.3203 H   0  0  0  0  0  0  0  0  0  0  0  0
   -5.5851   -4.1036   10.7176 H   0  0  0  0  0  0  0  0  0  0  0  0
   -5.4537   -2.4121   11.2561 H   0  0  0  0  0  0  0  0  0  0  0  0
   -3.6338   -4.8597   11.2571 H   0  0  0  0  0  0  0  0  0  0  0  0
    2.1870   -3.7678   13.4154 H   0  0  0  0  0  0  0  0  0  0  0  0
    1.3046   -2.3952   12.8028 H   0  0  0  0  0  0  0  0  0  0  0  0
    3.8211   -3.5229   11.8785 H   0  0  0  0  0  0  0  0  0  0  0  0
    4.1252   -1.3555   10.8332 H   0  0  0  0  0  0  0  0  0  0  0  0
    3.0220   -0.9022   12.1228 H   0  0  0  0  0  0  0  0  0  0  0  0
    2.8045   -2.4479    8.5012 H   0  0  0  0  0  0  0  0  0  0  0  0
    1.0863   -2.6522    8.7835 H   0  0  0  0  0  0  0  0  0  0  0  0
    3.1432   -4.2319    9.7927 H   0  0  0  0  0  0  0  0  0  0  0  0
    0.3405   -4.3256    9.8182 H   0  0  0  0  0  0  0  0  0  0  0  0
    1.4414   -5.5439   10.4262 H   0  0  0  0  0  0  0  0  0  0  0  0
   -3.2344   -0.7666    9.0567 H   0  0  0  0  0  0  0  0  0  0  0  0
   -2.6170   -0.5963    6.5647 H   0  0  0  0  0  0  0  0  0  0  0  0
   -0.3000   -0.2407    5.9457 H   0  0  0  0  0  0  0  0  0  0  0  0
    4.1540    0.2038    5.3319 H   0  0  0  0  0  0  0  0  0  0  0  0
    4.6916    1.3583    7.7641 H   0  0  0  0  0  0  0  0  0  0  0  0
  1  2  1  0
  1 38  1  1
  1 39  1  0
  1 40  1  0
  2  3  1  0
  2  4  1  0
  3 41  1  1
  3 42  1  0
  3 43  1  0
  4  5  2  0
  4  6  1  0
  6  7  2  0
  6 11  1  0
  7  8  1  0
  7 44  1  0
  8  9  2  0
  9 10  1  0
  9 16  1  0
 10 11  2  0
 11 12  1  0
 12 13  1  6
 12 14  1  0
 12 15  1  0
 16 17  1  0
 16 23  1  0
 17 18  1  0
 17 45  1  1
 17 46  1  0
 18 19  1  0
 18 22  1  0
 18 47  1  1
 19 20  1  0
 19 48  1  6
 19 49  1  0
 20 21  1  0
 20 24  1  0
 21 22  1  0
 21 50  1  6
 21 51  1  0
 22 23  1  0
 22 52  1  6
 23 53  1  6
 23 54  1  0
 24 25  2  0
 24 26  1  0
 26 27  2  0
 26 32  1  0
 27 28  1  0
 27 29  1  0
 29 30  2  0
 29 55  1  0
 30 31  1  0
 30 56  1  0
 31 32  2  0
 31 57  1  0
 32 33  1  0
 33 34  1  0
 33 37  1  0
 34 35  2  0
 35 36  1  0
 35 58  1  0
 36 37  2  0
 36 59  1  0
M  END
