set 1: 13
     RDKit          3D

 59 63  0  0  1  0  0  0  0  0999 V2000
   -3.9684   -4.4718   10.8829 C   0  0  1  0  0  0  0  0  0  0  0  0
   -2.9159   -4.4711   11.9677 C   0  0  0  0  0  0  0  0  0  0  0  0
   -3.1974   -4.1922   13.2767 C   0  0  0  0  0  0  0  0  0  0  0  0
   -2.1226   -3.8045   14.0989 C   0  0  0  0  0  0  0  0  0  0  0  0
   -0.8444   -3.8322   13.6767 N   0  0  0  0  0  0  0  0  0  0  0  0
   -0.5948   -4.2131   12.3776 C   0  0  0  0  0  0  0  0  0  0  0  0
   -1.6370   -4.4807   11.5059 N   0  0  0  0  0  0  0  0  0  0  0  0
    0.7623   -4.2315   11.9121 N   0  0  0  0  0  0  0  0  0  0  0  0
    1.8018   -3.3186   12.4994 C   0  0  2  0  0  0  0  0  0  0  0  0
    2.9019   -3.0312   11.5568 C   0  0  2  0  0  0  0  0  0  0  0  0
    3.1240   -1.5230   11.2307 C   0  0  2  0  0  0  0  0  0  0  0  0
    2.1529   -1.2760   10.1529 N   0  0  0  0  0  0  0  0  0  0  0  0
    2.0453   -2.5149    9.2816 C   0  0  2  0  0  0  0  0  0  0  0  0
    2.3676   -3.6135   10.2478 C   0  0  2  0  0  0  0  0  0  0  0  0
    1.1704   -4.4908   10.5060 C   0  0  2  0  0  0  0  0  0  0  0  0
    1.2374   -0.2955   10.2863 C   0  0  0  0  0  0  0  0  0  0  0  0
    1.2872    0.5189   11.2493 O   0  0  0  0  0  0  0  0  0  0  0  0
    0.1829   -0.3451    9.2428 C   0  0  0  0  0  0  0  0  0  0  0  0
   -1.1964   -0.5656    9.6549 C   0  0  0  0  0  0  0  0  0  0  0  0
   -1.5785   -0.7618   10.9749 F   0  0  0  0  0  0  0  0  0  0  0  0
   -2.2132   -0.6087    8.7414 C   0  0  0  0  0  0  0  0  0  0  0  0
   -1.8601   -0.5094    7.3309 C   0  0  0  0  0  0  0  0  0  0  0  0
   -0.5320   -0.3242    6.9985 C   0  0  0  0  0  0  0  0  0  0  0  0
    0.4698   -0.0818    7.9111 C   0  0  0  0  0  0  0  0  0  0  0  0
    1.7920    0.2338    7.4004 N   0  0  0  0  0  0  0  0  0  0  0  0
    2.7091    0.9351    8.1233 N   0  0  0  0  0  0  0  0  0  0  0  0
    3.7718    0.9161    7.4083 C   0  0  0  0  0  0  0  0  0  0  0  0
    3.5033    0.3363    6.1843 C   0  0  0  0  0  0  0  0  0  0  0  0
    2.2460   -0.0112    6.1420 N   0  0  0  0  0  0  0  0  0  0  0  0
   -2.2167   -3.4204   15.5946 C   0  0  0  0  0  0  0  0  0  0  0  0
   -1.2707   -3.0838   16.3007 O   0  0  0  0  0  0  0  0  0  0  0  0
   -3.4683   -3.4956   16.0480 N   0  0  0  0  0  0  0  0  0  0  0  0
   -3.8950   -3.1986   17.4123 C   0  0  1  0  0  0  0  0  0  0  0  0
   -4.6332   -3.8882   15.2604 C   0  0  1  0  0  0  0  0  0  0  0  0
   -4.9440   -4.2651   11.3230 H   0  0  0  0  0  0  0  0  0  0  0  0
   -3.7319   -3.7037   10.1466 H   0  0  0  0  0  0  0  0  0  0  0  0
   -3.9885   -5.4472   10.3967 H   0  0  0  0  0  0  0  0  0  0  0  0
   -4.1930   -4.2842   13.6828 H   0  0  0  0  0  0  0  0  0  0  0  0
    2.2085   -3.8012   13.3891 H   0  0  0  0  0  0  0  0  0  0  0  0
    1.3311   -2.3939   12.8361 H   0  0  0  0  0  0  0  0  0  0  0  0
    3.8253   -3.4666   11.9419 H   0  0  0  0  0  0  0  0  0  0  0  0
    4.1371   -1.3423   10.8693 H   0  0  0  0  0  0  0  0  0  0  0  0
    2.9772   -0.9021   12.1171 H   0  0  0  0  0  0  0  0  0  0  0  0
    2.8015   -2.4352    8.4995 H   0  0  0  0  0  0  0  0  0  0  0  0
    1.0869   -2.6523    8.7811 H   0  0  0  0  0  0  0  0  0  0  0  0
    3.0975   -4.2758    9.7799 H   0  0  0  0  0  0  0  0  0  0  0  0
    0.3173   -4.2656    9.8642 H   0  0  0  0  0  0  0  0  0  0  0  0
    1.3887   -5.5520   10.3810 H   0  0  0  0  0  0  0  0  0  0  0  0
   -3.2347   -0.6896    9.0842 H   0  0  0  0  0  0  0  0  0  0  0  0
   -2.6297   -0.5451    6.5734 H   0  0  0  0  0  0  0  0  0  0  0  0
   -0.2541   -0.4406    5.9604 H   0  0  0  0  0  0  0  0  0  0  0  0
    4.7204    1.2989    7.7567 H   0  0  0  0  0  0  0  0  0  0  0  0
    4.1818    0.2008    5.3541 H   0  0  0  0  0  0  0  0  0  0  0  0
   -3.0305   -2.9044   18.0075 H   0  0  0  0  0  0  0  0  0  0  0  0
   -4.6198   -2.3846   17.3973 H   0  0  0  0  0  0  0  0  0  0  0  0
   -4.3533   -4.0851   17.8508 H   0  0  0  0  0  0  0  0  0  0  0  0
   -4.3231   -4.1118   14.2397 H   0  0  0  0  0  0  0  0  0  0  0  0
   -5.0899   -4.7732   15.7035 H   0  0  0  0  0  0  0  0  0  0  0  0
   -5.3564   -3.0727   15.2501 H   0  0  0  0  0  0  0  0  0  0  0  0
  1  2  1  0
  1 35  1  1
  1 36  1  0
  1 37  1  0
  2  3  2  0
  2  7  1  0
  3  4  1  0
  3 38  1  0
  4  5  2  0
  4 30  1  0
  5  6  1  0
  6  7  2  0
  6  8  1  0
  8  9  1  0
  8 15  1  0
  9 10  1  0
  9 39  1  1
  9 40  1  0
 10 11  1  0
 10 14  1  0
 10 41  1  1
 11 12  1  0
 11 42  1  6
 11 43  1  0
 12 13  1  0
 12 16  1  0
 13 14  1  0
 13 44  1  6
 13 45  1  0
 14 15  1  0
 14 46  1  6
 15 47  1  6
 15 48  1  0
 16 17  2  0
 16 18  1  0
 18 19  2  0
 18 24  1  0
 19 20  1  0
 19 21  1  0
 21 22  2  0
 21 49  1  0
 22 23  1  0
 22 50  1  0
 23 24  2  0
 23 51  1  0
 24 25  1  0
 25 26  1  0
 25 29  1  0
 26 27  2  0
 27 28  1  0
 27 52  1  0
 28 29  2  0
 28 53  1  0
 30 31  2  0
 30 32  1  0
 32 33  1  0
 32 34  1  0
 33 54  1  1
 33 55  1  0
 33 56  1  0
 34 57  1  6
 34 58  1  0
 34 59  1  0
M  END
