set 1: 8
     RDKit          3D

 61 65  0  0  1  0  0  0  0  0999 V2000
   -3.8684   -4.9395   10.8402 C   0  0  1  0  0  0  0  0  0  0  0  0
   -2.8668   -4.5702   11.9600 C   0  0  0  0  0  0  0  0  0  0  0  0
   -3.2009   -4.1634   13.2655 C   0  0  0  0  0  0  0  0  0  0  0  0
   -2.1685   -3.9023   14.1237 C   0  0  0  0  0  0  0  0  0  0  0  0
   -0.8756   -3.9276   13.7033 N   0  0  0  0  0  0  0  0  0  0  0  0
   -0.5948   -4.2131   12.3776 C   0  0  0  0  0  0  0  0  0  0  0  0
   -1.5984   -4.5771   11.5085 N   0  0  0  0  0  0  0  0  0  0  0  0
    0.7623   -4.2315   11.9120 N   0  0  0  0  0  0  0  0  0  0  0  0
    1.8018   -3.3186   12.4994 C   0  0  2  0  0  0  0  0  0  0  0  0
    2.9019   -3.0312   11.5568 C   0  0  2  0  0  0  0  0  0  0  0  0
    3.1240   -1.5230   11.2307 C   0  0  2  0  0  0  0  0  0  0  0  0
    2.1529   -1.2760   10.1529 N   0  0  0  0  0  0  0  0  0  0  0  0
    2.0453   -2.5149    9.2816 C   0  0  2  0  0  0  0  0  0  0  0  0
    2.3676   -3.6135   10.2478 C   0  0  2  0  0  0  0  0  0  0  0  0
    1.1704   -4.4908   10.5060 C   0  0  2  0  0  0  0  0  0  0  0  0
    1.2374   -0.2955   10.2863 C   0  0  0  0  0  0  0  0  0  0  0  0
    1.2872    0.5189   11.2493 O   0  0  0  0  0  0  0  0  0  0  0  0
    0.1829   -0.3451    9.2428 C   0  0  0  0  0  0  0  0  0  0  0  0
   -1.1964   -0.5656    9.6549 C   0  0  0  0  0  0  0  0  0  0  0  0
   -1.5785   -0.7618   10.9749 F   0  0  0  0  0  0  0  0  0  0  0  0
   -2.2132   -0.6087    8.7414 C   0  0  0  0  0  0  0  0  0  0  0  0
   -1.8601   -0.5094    7.3309 C   0  0  0  0  0  0  0  0  0  0  0  0
   -0.5320   -0.3242    6.9985 C   0  0  0  0  0  0  0  0  0  0  0  0
    0.4698   -0.0818    7.9111 C   0  0  0  0  0  0  0  0  0  0  0  0
    1.7920    0.2338    7.4004 N   0  0  0  0  0  0  0  0  0  0  0  0
    2.7091    0.9351    8.1233 N   0  0  0  0  0  0  0  0  0  0  0  0
    3.7718    0.9161    7.4083 C   0  0  0  0  0  0  0  0  0  0  0  0
    3.5033    0.3363    6.1843 C   0  0  0  0  0  0  0  0  0  0  0  0
    2.2460   -0.0112    6.1420 N   0  0  0  0  0  0  0  0  0  0  0  0
   -2.3332   -3.8851   15.6262 C   0  0  2  0  0  0  0  0  0  0  0  0
   -1.7499   -5.1813   16.2235 C   0  0  1  0  0  0  0  0  0  0  0  0
   -3.8128   -3.7872   16.0616 C   0  0  1  0  0  0  0  0  0  0  0  0
   -1.6024   -2.6595   16.2139 C   0  0  1  0  0  0  0  0  0  0  0  0
   -4.4490   -5.8131   11.1344 H   0  0  0  0  0  0  0  0  0  0  0  0
   -4.5537   -4.1105   10.6668 H   0  0  0  0  0  0  0  0  0  0  0  0
   -3.3630   -5.1667    9.9006 H   0  0  0  0  0  0  0  0  0  0  0  0
   -4.2325   -4.1755   13.5765 H   0  0  0  0  0  0  0  0  0  0  0  0
    2.1859   -3.7684   13.4155 H   0  0  0  0  0  0  0  0  0  0  0  0
    1.3032   -2.3959   12.8030 H   0  0  0  0  0  0  0  0  0  0  0  0
    3.8209   -3.5231   11.8788 H   0  0  0  0  0  0  0  0  0  0  0  0
    4.1252   -1.3556   10.8332 H   0  0  0  0  0  0  0  0  0  0  0  0
    3.0217   -0.9024   12.1228 H   0  0  0  0  0  0  0  0  0  0  0  0
    2.8041   -2.4481    8.5009 H   0  0  0  0  0  0  0  0  0  0  0  0
    1.0859   -2.6522    8.7843 H   0  0  0  0  0  0  0  0  0  0  0  0
    3.1430   -4.2321    9.7928 H   0  0  0  0  0  0  0  0  0  0  0  0
    0.3395   -4.3248    9.8197 H   0  0  0  0  0  0  0  0  0  0  0  0
    1.4402   -5.5441   10.4263 H   0  0  0  0  0  0  0  0  0  0  0  0
   -3.2339   -0.7672    9.0577 H   0  0  0  0  0  0  0  0  0  0  0  0
   -2.6169   -0.5967    6.5647 H   0  0  0  0  0  0  0  0  0  0  0  0
   -0.2997   -0.2411    5.9459 H   0  0  0  0  0  0  0  0  0  0  0  0
    4.6915    1.3570    7.7656 H   0  0  0  0  0  0  0  0  0  0  0  0
    4.1542    0.2029    5.3322 H   0  0  0  0  0  0  0  0  0  0  0  0
   -0.6854   -5.2753   16.0048 H   0  0  0  0  0  0  0  0  0  0  0  0
   -1.8636   -5.2122   17.3068 H   0  0  0  0  0  0  0  0  0  0  0  0
   -2.2433   -6.0605   15.8086 H   0  0  0  0  0  0  0  0  0  0  0  0
   -4.2918   -2.9027   15.6400 H   0  0  0  0  0  0  0  0  0  0  0  0
   -4.3845   -4.6624   15.7520 H   0  0  0  0  0  0  0  0  0  0  0  0
   -3.9030   -3.7199   17.1459 H   0  0  0  0  0  0  0  0  0  0  0  0
   -1.9842   -1.7327   15.7845 H   0  0  0  0  0  0  0  0  0  0  0  0
   -1.7180   -2.6007   17.2958 H   0  0  0  0  0  0  0  0  0  0  0  0
   -0.5322   -2.6936   16.0054 H   0  0  0  0  0  0  0  0  0  0  0  0
  1  2  1  0
  1 34  1  1
  1 35  1  0
  1 36  1  0
  2  3  2  0
  2  7  1  0
  3  4  1  0
  3 37  1  0
  4  5  2  0
 30  4  1  6
  5  6  1  0
  6  7  2  0
  6  8  1  0
  8  9  1  0
  8 15  1  0
  9 10  1  0
  9 38  1  1
  9 39  1  0
 10 11  1  0
 10 14  1  0
 10 40  1  1
 11 12  1  0
 11 41  1  6
 11 42  1  0
 12 13  1  0
 12 16  1  0
 13 14  1  0
 13 43  1  6
 13 44  1  0
 14 15  1  0
 14 45  1  6
 15 46  1  6
 15 47  1  0
 16 17  2  0
 16 18  1  0
 18 19  2  0
 18 24  1  0
 19 20  1  0
 19 21  1  0
 21 22  2  0
 21 48  1  0
 22 23  1  0
 22 49  1  0
 23 24  2  0
 23 50  1  0
 24 25  1  0
 25 26  1  0
 25 29  1  0
 26 27  2  0
 27 28  1  0
 27 51  1  0
 28 29  2  0
 28 52  1  0
 30 31  1  0
 30 32  1  0
 30 33  1  0
 31 53  1  1
 31 54  1  0
 31 55  1  0
 32 56  1  6
 32 57  1  0
 32 58  1  0
 33 59  1  6
 33 60  1  0
 33 61  1  0
M  END
