set 2: 24
     RDKit          3D

 51 55  0  0  1  0  0  0  0  0999 V2000
   -3.6560   -4.4082   10.6496 C   0  0  1  0  0  0  0  0  0  0  0  0
   -2.6363   -4.2863   11.8484 C   0  0  0  0  0  0  0  0  0  0  0  0
   -2.9728   -3.7973   13.0393 C   0  0  0  0  0  0  0  0  0  0  0  0
   -1.9726   -3.5731   14.0042 C   0  0  0  0  0  0  0  0  0  0  0  0
   -2.3756   -3.1637   15.3673 C   0  0  1  0  0  0  0  0  0  0  0  0
   -0.6465   -3.7186   13.7066 N   0  0  0  0  0  0  0  0  0  0  0  0
   -0.4152   -4.1713   12.4007 C   0  0  0  0  0  0  0  0  0  0  0  0
   -1.3444   -4.5719   11.4791 N   0  0  0  0  0  0  0  0  0  0  0  0
    0.9338   -4.4159   12.0297 N   0  0  0  0  0  0  0  0  0  0  0  0
    2.0812   -3.6152   12.5865 C   0  0  2  0  0  0  0  0  0  0  0  0
    2.9518   -3.1791   11.4366 C   0  0  2  0  0  0  0  0  0  0  0  0
    2.8031   -1.6303   11.2243 C   0  0  2  0  0  0  0  0  0  0  0  0
    1.6284   -1.4004   10.3897 N   0  0  0  0  0  0  0  0  0  0  0  0
    1.3932   -2.5804    9.5475 C   0  0  2  0  0  0  0  0  0  0  0  0
    2.2070   -3.7056   10.2003 C   0  0  2  0  0  0  0  0  0  0  0  0
    1.3723   -4.8360   10.7195 C   0  0  2  0  0  0  0  0  0  0  0  0
    0.9211   -0.2632   10.3940 C   0  0  0  0  0  0  0  0  0  0  0  0
    1.0590    0.6497   11.2167 O   0  0  0  0  0  0  0  0  0  0  0  0
   -0.1221    0.0134    9.3154 C   0  0  0  0  0  0  0  0  0  0  0  0
   -1.4452    0.1190    9.7390 N   0  0  0  0  0  0  0  0  0  0  0  0
   -2.4265    0.2560    8.7553 C   0  0  0  0  0  0  0  0  0  0  0  0
   -2.1158    0.4082    7.3758 C   0  0  0  0  0  0  0  0  0  0  0  0
   -3.3654    0.7228    6.2267 Cl  0  0  0  0  0  0  0  0  0  0  0  0
   -0.8334    0.3039    6.9762 C   0  0  0  0  0  0  0  0  0  0  0  0
    0.2122    0.0835    7.9296 C   0  0  0  0  0  0  0  0  0  0  0  0
    1.5569   -0.0831    7.4716 N   0  0  0  0  0  0  0  0  0  0  0  0
    1.8465   -0.5836    6.2689 N   0  0  0  0  0  0  0  0  0  0  0  0
    3.1217   -0.5735    6.2082 C   0  0  0  0  0  0  0  0  0  0  0  0
    3.6290    0.0305    7.3255 C   0  0  0  0  0  0  0  0  0  0  0  0
    2.6094    0.3868    8.1268 N   0  0  0  0  0  0  0  0  0  0  0  0
   -4.6318   -4.0374   10.9635 H   0  0  0  0  0  0  0  0  0  0  0  0
   -3.2973   -3.8183    9.8061 H   0  0  0  0  0  0  0  0  0  0  0  0
   -3.7430   -5.4530   10.3514 H   0  0  0  0  0  0  0  0  0  0  0  0
   -4.0001   -3.5677   13.2828 H   0  0  0  0  0  0  0  0  0  0  0  0
   -3.4621   -3.0934   15.4192 H   0  0  0  0  0  0  0  0  0  0  0  0
   -2.0245   -3.9029   16.0873 H   0  0  0  0  0  0  0  0  0  0  0  0
   -1.9371   -2.1932   15.5997 H   0  0  0  0  0  0  0  0  0  0  0  0
    2.6624   -4.1827   13.3169 H   0  0  0  0  0  0  0  0  0  0  0  0
    1.6915   -2.7316   13.1000 H   0  0  0  0  0  0  0  0  0  0  0  0
    3.9810   -3.4942   11.6210 H   0  0  0  0  0  0  0  0  0  0  0  0
    3.6600   -1.2329   10.6767 H   0  0  0  0  0  0  0  0  0  0  0  0
    2.7221   -1.0751   12.1616 H   0  0  0  0  0  0  0  0  0  0  0  0
    1.7804   -2.3911    8.5440 H   0  0  0  0  0  0  0  0  0  0  0  0
    0.3396   -2.8527    9.4501 H   0  0  0  0  0  0  0  0  0  0  0  0
    2.9122   -4.0999    9.4656 H   0  0  0  0  0  0  0  0  0  0  0  0
    0.5000   -4.9976   10.0800 H   0  0  0  0  0  0  0  0  0  0  0  0
    1.9261   -5.7770   10.7536 H   0  0  0  0  0  0  0  0  0  0  0  0
   -3.4592    0.2429    9.0790 H   0  0  0  0  0  0  0  0  0  0  0  0
   -0.5754    0.3852    5.9295 H   0  0  0  0  0  0  0  0  0  0  0  0
    3.6837   -0.9900    5.3805 H   0  0  0  0  0  0  0  0  0  0  0  0
    4.6736    0.2066    7.5543 H   0  0  0  0  0  0  0  0  0  0  0  0
  1  2  1  0
  1 31  1  1
  1 32  1  0
  1 33  1  0
  2  3  2  0
  2  8  1  0
  3  4  1  0
  3 34  1  0
  4  5  1  0
  4  6  2  0
  5 35  1  6
  5 36  1  0
  5 37  1  0
  6  7  1  0
  7  8  2  0
  7  9  1  0
  9 10  1  0
  9 16  1  0
 10 11  1  0
 10 38  1  1
 10 39  1  0
 11 12  1  0
 11 15  1  0
 11 40  1  1
 12 13  1  0
 12 41  1  6
 12 42  1  0
 13 14  1  0
 13 17  1  0
 14 15  1  0
 14 43  1  6
 14 44  1  0
 15 16  1  0
 15 45  1  6
 16 46  1  6
 16 47  1  0
 17 18  2  0
 17 19  1  0
 19 20  2  0
 19 25  1  0
 20 21  1  0
 21 22  2  0
 21 48  1  0
 22 23  1  0
 22 24  1  0
 24 25  2  0
 24 49  1  0
 25 26  1  0
 26 27  1  0
 26 30  1  0
 27 28  2  0
 28 29  1  0
 28 50  1  0
 29 30  2  0
 29 51  1  0
M  END
