set 1: 19
     RDKit          3D

 62 67  0  0  1  0  0  0  0  0999 V2000
   -3.8684   -4.9395   10.8402 C   0  0  1  0  0  0  0  0  0  0  0  0
   -2.8668   -4.5702   11.9600 C   0  0  0  0  0  0  0  0  0  0  0  0
   -3.2009   -4.1634   13.2655 C   0  0  0  0  0  0  0  0  0  0  0  0
   -2.1685   -3.9023   14.1238 C   0  0  0  0  0  0  0  0  0  0  0  0
   -0.8756   -3.9276   13.7033 N   0  0  0  0  0  0  0  0  0  0  0  0
   -0.5948   -4.2131   12.3776 C   0  0  0  0  0  0  0  0  0  0  0  0
   -1.5984   -4.5771   11.5085 N   0  0  0  0  0  0  0  0  0  0  0  0
    0.7623   -4.2315   11.9121 N   0  0  0  0  0  0  0  0  0  0  0  0
    1.8018   -3.3186   12.4994 C   0  0  2  0  0  0  0  0  0  0  0  0
    2.9019   -3.0312   11.5568 C   0  0  2  0  0  0  0  0  0  0  0  0
    3.1240   -1.5230   11.2307 C   0  0  2  0  0  0  0  0  0  0  0  0
    2.1529   -1.2760   10.1529 N   0  0  0  0  0  0  0  0  0  0  0  0
    2.0453   -2.5149    9.2816 C   0  0  2  0  0  0  0  0  0  0  0  0
    2.3676   -3.6135   10.2478 C   0  0  2  0  0  0  0  0  0  0  0  0
    1.1704   -4.4908   10.5060 C   0  0  2  0  0  0  0  0  0  0  0  0
    1.2374   -0.2955   10.2863 C   0  0  0  0  0  0  0  0  0  0  0  0
    1.2872    0.5189   11.2493 O   0  0  0  0  0  0  0  0  0  0  0  0
    0.1829   -0.3451    9.2428 C   0  0  0  0  0  0  0  0  0  0  0  0
   -1.1964   -0.5656    9.6549 C   0  0  0  0  0  0  0  0  0  0  0  0
   -1.5785   -0.7618   10.9749 F   0  0  0  0  0  0  0  0  0  0  0  0
   -2.2132   -0.6087    8.7414 C   0  0  0  0  0  0  0  0  0  0  0  0
   -1.8601   -0.5094    7.3309 C   0  0  0  0  0  0  0  0  0  0  0  0
   -0.5320   -0.3242    6.9985 C   0  0  0  0  0  0  0  0  0  0  0  0
    0.4698   -0.0818    7.9111 C   0  0  0  0  0  0  0  0  0  0  0  0
    1.7920    0.2338    7.4004 N   0  0  0  0  0  0  0  0  0  0  0  0
    2.2460   -0.0112    6.1420 N   0  0  0  0  0  0  0  0  0  0  0  0
    3.5033    0.3363    6.1843 C   0  0  0  0  0  0  0  0  0  0  0  0
    3.7718    0.9161    7.4083 C   0  0  0  0  0  0  0  0  0  0  0  0
    2.7091    0.9351    8.1233 N   0  0  0  0  0  0  0  0  0  0  0  0
   -2.4109   -3.5417   15.5176 N   0  0  0  0  0  0  0  0  0  0  0  0
   -1.8552   -2.2123   15.7951 C   0  0  2  0  0  0  0  0  0  0  0  0
   -2.1764   -1.7524   17.2391 C   0  0  2  0  0  0  0  0  0  0  0  0
   -3.5833   -1.8070   17.5005 O   0  0  0  0  0  0  0  0  0  0  0  0
   -4.1563   -3.0937   17.2419 C   0  0  2  0  0  0  0  0  0  0  0  0
   -3.8511   -3.5644   15.7978 C   0  0  2  0  0  0  0  0  0  0  0  0
   -4.3961   -5.8562   11.1015 H   0  0  0  0  0  0  0  0  0  0  0  0
   -4.6006   -4.1420   10.7179 H   0  0  0  0  0  0  0  0  0  0  0  0
   -3.3701   -5.0938    9.8821 H   0  0  0  0  0  0  0  0  0  0  0  0
   -4.2256   -4.1178   13.6011 H   0  0  0  0  0  0  0  0  0  0  0  0
    2.1869   -3.7692   13.4147 H   0  0  0  0  0  0  0  0  0  0  0  0
    1.3046   -2.3956   12.8041 H   0  0  0  0  0  0  0  0  0  0  0  0
    3.8209   -3.5231   11.8789 H   0  0  0  0  0  0  0  0  0  0  0  0
    4.1251   -1.3555   10.8330 H   0  0  0  0  0  0  0  0  0  0  0  0
    3.0221   -0.9025   12.1231 H   0  0  0  0  0  0  0  0  0  0  0  0
    2.8042   -2.4479    8.5010 H   0  0  0  0  0  0  0  0  0  0  0  0
    1.0860   -2.6523    8.7840 H   0  0  0  0  0  0  0  0  0  0  0  0
    3.1430   -4.2320    9.7927 H   0  0  0  0  0  0  0  0  0  0  0  0
    0.3399   -4.3248    9.8193 H   0  0  0  0  0  0  0  0  0  0  0  0
    1.4403   -5.5441   10.4262 H   0  0  0  0  0  0  0  0  0  0  0  0
   -3.2342   -0.7665    9.0573 H   0  0  0  0  0  0  0  0  0  0  0  0
   -2.6169   -0.5964    6.5647 H   0  0  0  0  0  0  0  0  0  0  0  0
   -0.2998   -0.2406    5.9458 H   0  0  0  0  0  0  0  0  0  0  0  0
    4.1542    0.2034    5.3320 H   0  0  0  0  0  0  0  0  0  0  0  0
    4.6916    1.3574    7.7650 H   0  0  0  0  0  0  0  0  0  0  0  0
   -2.2367   -1.4808   15.0791 H   0  0  0  0  0  0  0  0  0  0  0  0
   -0.7737   -2.2319   15.6471 H   0  0  0  0  0  0  0  0  0  0  0  0
   -1.8273   -0.7296   17.3863 H   0  0  0  0  0  0  0  0  0  0  0  0
   -1.6300   -2.3601   17.9633 H   0  0  0  0  0  0  0  0  0  0  0  0
   -5.2354   -3.0384   17.3910 H   0  0  0  0  0  0  0  0  0  0  0  0
   -3.7932   -3.8256   17.9663 H   0  0  0  0  0  0  0  0  0  0  0  0
   -4.2342   -4.5762   15.6519 H   0  0  0  0  0  0  0  0  0  0  0  0
   -4.3903   -2.9397   15.0821 H   0  0  0  0  0  0  0  0  0  0  0  0
  1  2  1  0
  1 36  1  1
  1 37  1  0
  1 38  1  0
  2  3  2  0
  2  7  1  0
  3  4  1  0
  3 39  1  0
  4  5  2  0
  4 30  1  0
  5  6  1  0
  6  7  2  0
  6  8  1  0
  8  9  1  0
  8 15  1  0
  9 10  1  0
  9 40  1  1
  9 41  1  0
 10 11  1  0
 10 14  1  0
 10 42  1  1
 11 12  1  0
 11 43  1  6
 11 44  1  0
 12 13  1  0
 12 16  1  0
 13 14  1  0
 13 45  1  6
 13 46  1  0
 14 15  1  0
 14 47  1  6
 15 48  1  6
 15 49  1  0
 16 17  2  0
 16 18  1  0
 18 19  2  0
 18 24  1  0
 19 20  1  0
 19 21  1  0
 21 22  2  0
 21 50  1  0
 22 23  1  0
 22 51  1  0
 23 24  2  0
 23 52  1  0
 24 25  1  0
 25 26  1  0
 25 29  1  0
 26 27  2  0
 27 28  1  0
 27 53  1  0
 28 29  2  0
 28 54  1  0
 30 31  1  0
 30 35  1  0
 31 32  1  0
 31 55  1  6
 31 56  1  0
 32 33  1  0
 32 57  1  6
 32 58  1  0
 33 34  1  0
 34 35  1  0
 34 59  1  6
 34 60  1  0
 35 61  1  1
 35 62  1  0
M  END
