set 1: 23
     RDKit          3D

 52 56  0  0  1  0  0  0  0  0999 V2000
    1.2872    0.5189   11.2493 O   0  0  0  0  0  0  0  0  0  0  0  0
    1.2374   -0.2955   10.2863 C   0  0  0  0  0  0  0  0  0  0  0  0
    0.1829   -0.3451    9.2428 C   0  0  0  0  0  0  0  0  0  0  0  0
   -1.1964   -0.5656    9.6549 C   0  0  0  0  0  0  0  0  0  0  0  0
   -1.5785   -0.7618   10.9749 F   0  0  0  0  0  0  0  0  0  0  0  0
   -2.2132   -0.6087    8.7414 C   0  0  0  0  0  0  0  0  0  0  0  0
   -1.8601   -0.5094    7.3309 C   0  0  0  0  0  0  0  0  0  0  0  0
   -0.5320   -0.3242    6.9985 C   0  0  0  0  0  0  0  0  0  0  0  0
    0.4698   -0.0818    7.9111 C   0  0  0  0  0  0  0  0  0  0  0  0
    1.7920    0.2338    7.4004 N   0  0  0  0  0  0  0  0  0  0  0  0
    2.7091    0.9351    8.1233 N   0  0  0  0  0  0  0  0  0  0  0  0
    3.7718    0.9161    7.4083 C   0  0  0  0  0  0  0  0  0  0  0  0
    3.5033    0.3363    6.1843 C   0  0  0  0  0  0  0  0  0  0  0  0
    2.2460   -0.0112    6.1420 N   0  0  0  0  0  0  0  0  0  0  0  0
    2.1529   -1.2760   10.1529 N   0  0  0  0  0  0  0  0  0  0  0  0
    2.0453   -2.5149    9.2816 C   0  0  2  0  0  0  0  0  0  0  0  0
    2.3676   -3.6135   10.2478 C   0  0  2  0  0  0  0  0  0  0  0  0
    1.1704   -4.4908   10.5060 C   0  0  2  0  0  0  0  0  0  0  0  0
    0.7623   -4.2315   11.9120 N   0  0  0  0  0  0  0  0  0  0  0  0
    1.8018   -3.3186   12.4994 C   0  0  2  0  0  0  0  0  0  0  0  0
    2.9019   -3.0312   11.5568 C   0  0  2  0  0  0  0  0  0  0  0  0
    3.1240   -1.5230   11.2307 C   0  0  2  0  0  0  0  0  0  0  0  0
   -0.5948   -4.2131   12.3776 C   0  0  0  0  0  0  0  0  0  0  0  0
   -0.8756   -3.9276   13.7033 N   0  0  0  0  0  0  0  0  0  0  0  0
   -2.1685   -3.9023   14.1237 C   0  0  0  0  0  0  0  0  0  0  0  0
   -3.2009   -4.1634   13.2655 C   0  0  0  0  0  0  0  0  0  0  0  0
   -2.8668   -4.5702   11.9600 C   0  0  0  0  0  0  0  0  0  0  0  0
   -1.5984   -4.5771   11.5085 N   0  0  0  0  0  0  0  0  0  0  0  0
   -3.8684   -4.9395   10.8402 C   0  0  1  0  0  0  0  0  0  0  0  0
   -3.8132   -4.0469    9.8486 F   0  0  0  0  0  0  0  0  0  0  0  0
   -3.6045   -6.1522   10.3495 F   0  0  0  0  0  0  0  0  0  0  0  0
   -5.1113   -4.9475   11.3271 F   0  0  0  0  0  0  0  0  0  0  0  0
   -2.3332   -3.8851   15.6262 C   0  0  1  0  0  0  0  0  0  0  0  0
   -1.6636   -2.8649   16.1661 F   0  0  0  0  0  0  0  0  0  0  0  0
   -3.6208   -3.7566   15.9571 F   0  0  0  0  0  0  0  0  0  0  0  0
   -1.8816   -5.0261   16.1510 F   0  0  0  0  0  0  0  0  0  0  0  0
   -3.2344   -0.7684    9.0561 H   0  0  0  0  0  0  0  0  0  0  0  0
   -2.6171   -0.5973    6.5649 H   0  0  0  0  0  0  0  0  0  0  0  0
   -0.2999   -0.2409    5.9457 H   0  0  0  0  0  0  0  0  0  0  0  0
    4.6916    1.3586    7.7639 H   0  0  0  0  0  0  0  0  0  0  0  0
    4.1541    0.2040    5.3318 H   0  0  0  0  0  0  0  0  0  0  0  0
    2.8048   -2.4478    8.5015 H   0  0  0  0  0  0  0  0  0  0  0  0
    1.0866   -2.6521    8.7829 H   0  0  0  0  0  0  0  0  0  0  0  0
    3.1431   -4.2319    9.7926 H   0  0  0  0  0  0  0  0  0  0  0  0
    1.4410   -5.5439   10.4255 H   0  0  0  0  0  0  0  0  0  0  0  0
    0.3407   -4.3248    9.8183 H   0  0  0  0  0  0  0  0  0  0  0  0
    2.1875   -3.7689   13.4147 H   0  0  0  0  0  0  0  0  0  0  0  0
    1.3053   -2.3952   12.8040 H   0  0  0  0  0  0  0  0  0  0  0  0
    3.8211   -3.5229   11.8786 H   0  0  0  0  0  0  0  0  0  0  0  0
    3.0224   -0.9021   12.1228 H   0  0  0  0  0  0  0  0  0  0  0  0
    4.1251   -1.3558   10.8328 H   0  0  0  0  0  0  0  0  0  0  0  0
   -4.2264   -4.1811   13.6040 H   0  0  0  0  0  0  0  0  0  0  0  0
  1  2  2  0
  2  3  1  0
  2 15  1  0
  3  4  2  0
  3  9  1  0
  4  5  1  0
  4  6  1  0
  6  7  2  0
  6 37  1  0
  7  8  1  0
  7 38  1  0
  8  9  2  0
  8 39  1  0
  9 10  1  0
 10 11  1  0
 10 14  1  0
 11 12  2  0
 12 13  1  0
 12 40  1  0
 13 14  2  0
 13 41  1  0
 15 16  1  0
 15 22  1  0
 16 17  1  0
 16 42  1  6
 16 43  1  0
 17 18  1  0
 17 21  1  0
 17 44  1  6
 18 19  1  0
 18 45  1  1
 18 46  1  0
 19 20  1  0
 19 23  1  0
 20 21  1  0
 20 47  1  1
 20 48  1  0
 21 22  1  0
 21 49  1  1
 22 50  1  1
 22 51  1  0
 23 24  2  0
 23 28  1  0
 24 25  1  0
 25 26  2  0
 25 33  1  0
 26 27  1  0
 26 52  1  0
 27 28  2  0
 27 29  1  0
 29 30  1  6
 29 31  1  0
 29 32  1  0
 33 34  1  1
 33 35  1  0
 33 36  1  0
M  END
