set 2: 13
     RDKit          3D

 52 56  0  0  1  0  0  0  0  0999 V2000
   -2.6040   -2.9900   15.1628 C   0  0  1  0  0  0  0  0  0  0  0  0
   -2.0793   -3.4860   13.8719 C   0  0  0  0  0  0  0  0  0  0  0  0
   -2.9880   -3.7789   12.8374 C   0  0  0  0  0  0  0  0  0  0  0  0
   -2.5452   -4.3434   11.7168 C   0  0  0  0  0  0  0  0  0  0  0  0
   -3.4521   -4.5498   10.4414 C   0  0  1  0  0  0  0  0  0  0  0  0
   -1.2252   -4.6452   11.4854 N   0  0  0  0  0  0  0  0  0  0  0  0
   -0.3832   -4.1795   12.4588 C   0  0  0  0  0  0  0  0  0  0  0  0
   -0.7317   -3.6430   13.7057 N   0  0  0  0  0  0  0  0  0  0  0  0
    0.9938   -4.4401   12.2283 N   0  0  0  0  0  0  0  0  0  0  0  0
    1.5492   -4.9431   10.9937 C   0  0  2  0  0  0  0  0  0  0  0  0
    2.4276   -3.8446   10.4785 C   0  0  1  0  0  0  0  0  0  0  0  0
    1.6766   -2.7695    9.6818 C   0  0  2  0  0  0  0  0  0  0  0  0
    1.8348   -1.5353   10.4619 N   0  0  0  0  0  0  0  0  0  0  0  0
    2.9290   -1.7029   11.4127 C   0  0  2  0  0  0  0  0  0  0  0  0
    3.0576   -3.2335   11.7395 C   0  0  1  0  0  0  0  0  0  0  0  0
    2.0863   -3.5979   12.8323 C   0  0  2  0  0  0  0  0  0  0  0  0
    1.1302   -0.4044   10.3271 C   0  0  0  0  0  0  0  0  0  0  0  0
    1.1932    0.5615   11.0967 O   0  0  0  0  0  0  0  0  0  0  0  0
    0.0297   -0.3410    9.2547 C   0  0  0  0  0  0  0  0  0  0  0  0
   -1.2834   -0.6919    9.5792 C   0  0  0  0  0  0  0  0  0  0  0  0
   -2.3079   -0.4353    8.6899 C   0  0  0  0  0  0  0  0  0  0  0  0
   -2.0116   -0.0091    7.4296 C   0  0  0  0  0  0  0  0  0  0  0  0
   -0.7058    0.1684    6.9928 C   0  0  0  0  0  0  0  0  0  0  0  0
    0.3672   -0.0475    7.8889 C   0  0  0  0  0  0  0  0  0  0  0  0
    1.7010    0.1459    7.3596 N   0  0  0  0  0  0  0  0  0  0  0  0
    2.8263    0.4352    8.0847 N   0  0  0  0  0  0  0  0  0  0  0  0
    3.7575    0.7383    7.2066 C   0  0  0  0  0  0  0  0  0  0  0  0
    3.1153    0.6085    5.9243 C   0  0  0  0  0  0  0  0  0  0  0  0
    1.8469    0.2624    6.0346 N   0  0  0  0  0  0  0  0  0  0  0  0
   -3.6928   -2.9273   15.1566 H   0  0  0  0  0  0  0  0  0  0  0  0
   -2.3097   -3.6558   15.9750 H   0  0  0  0  0  0  0  0  0  0  0  0
   -2.2098   -1.9959   15.3763 H   0  0  0  0  0  0  0  0  0  0  0  0
   -4.0414   -3.5566   12.9278 H   0  0  0  0  0  0  0  0  0  0  0  0
   -4.4611   -4.1672   10.5993 H   0  0  0  0  0  0  0  0  0  0  0  0
   -3.0254   -4.0294    9.5831 H   0  0  0  0  0  0  0  0  0  0  0  0
   -3.5282   -5.6096   10.1954 H   0  0  0  0  0  0  0  0  0  0  0  0
    0.7515   -5.1760   10.2866 H   0  0  0  0  0  0  0  0  0  0  0  0
    2.1093   -5.8584   11.1900 H   0  0  0  0  0  0  0  0  0  0  0  0
    3.2448   -4.2596    9.8852 H   0  0  0  0  0  0  0  0  0  0  0  0
    0.6050   -2.9743    9.6975 H   0  0  0  0  0  0  0  0  0  0  0  0
    2.0407   -2.7037    8.6582 H   0  0  0  0  0  0  0  0  0  0  0  0
    2.8072   -1.1451   12.3423 H   0  0  0  0  0  0  0  0  0  0  0  0
    3.8652   -1.3980   10.9422 H   0  0  0  0  0  0  0  0  0  0  0  0
    4.0937   -3.5552   11.8592 H   0  0  0  0  0  0  0  0  0  0  0  0
    2.6094   -4.1636   13.6045 H   0  0  0  0  0  0  0  0  0  0  0  0
    1.6494   -2.7100   13.2921 H   0  0  0  0  0  0  0  0  0  0  0  0
   -1.5047   -1.1750   10.5209 H   0  0  0  0  0  0  0  0  0  0  0  0
   -3.3347   -0.5752    8.9946 H   0  0  0  0  0  0  0  0  0  0  0  0
   -2.8070    0.2100    6.7326 H   0  0  0  0  0  0  0  0  0  0  0  0
   -0.5356    0.4839    5.9732 H   0  0  0  0  0  0  0  0  0  0  0  0
    4.7643    1.0113    7.4869 H   0  0  0  0  0  0  0  0  0  0  0  0
    3.5585    0.7580    4.9508 H   0  0  0  0  0  0  0  0  0  0  0  0
  1  2  1  0
  1 30  1  6
  1 31  1  0
  1 32  1  0
  2  3  2  0
  2  8  1  0
  3  4  1  0
  3 33  1  0
  4  5  1  0
  4  6  2  0
  5 34  1  1
  5 35  1  0
  5 36  1  0
  6  7  1  0
  7  8  2  0
  7  9  1  0
  9 10  1  0
  9 16  1  0
 10 11  1  0
 10 37  1  6
 10 38  1  0
 11 12  1  0
 11 15  1  0
 11 39  1  6
 12 13  1  0
 12 40  1  6
 12 41  1  0
 13 14  1  0
 13 17  1  0
 14 15  1  0
 14 42  1  1
 14 43  1  0
 15 16  1  0
 15 44  1  1
 16 45  1  1
 16 46  1  0
 17 18  2  0
 17 19  1  0
 19 20  2  0
 19 24  1  0
 20 21  1  0
 20 47  1  0
 21 22  2  0
 21 48  1  0
 22 23  1  0
 22 49  1  0
 23 24  2  0
 23 50  1  0
 24 25  1  0
 25 26  1  0
 25 29  1  0
 26 27  2  0
 27 28  1  0
 27 51  1  0
 28 29  2  0
 28 52  1  0
M  END
