set 1: 7
     RDKit          3D

 52 56  0  0  1  0  0  0  0  0999 V2000
   -2.3332   -3.8851   15.6262 C   0  0  1  0  0  0  0  0  0  0  0  0
   -2.1685   -3.9023   14.1238 C   0  0  0  0  0  0  0  0  0  0  0  0
   -0.8756   -3.9276   13.7033 N   0  0  0  0  0  0  0  0  0  0  0  0
   -0.5948   -4.2131   12.3776 C   0  0  0  0  0  0  0  0  0  0  0  0
   -1.5984   -4.5771   11.5085 N   0  0  0  0  0  0  0  0  0  0  0  0
   -2.8668   -4.5702   11.9600 C   0  0  0  0  0  0  0  0  0  0  0  0
   -3.8684   -4.9395   10.8402 C   0  0  1  0  0  0  0  0  0  0  0  0
   -3.2009   -4.1634   13.2655 C   0  0  0  0  0  0  0  0  0  0  0  0
   -4.8932   -4.0124   13.6943 Cl  0  0  0  0  0  0  0  0  0  0  0  0
    0.7623   -4.2315   11.9121 N   0  0  0  0  0  0  0  0  0  0  0  0
    1.8018   -3.3186   12.4994 C   0  0  2  0  0  0  0  0  0  0  0  0
    2.9019   -3.0312   11.5568 C   0  0  2  0  0  0  0  0  0  0  0  0
    3.1240   -1.5230   11.2307 C   0  0  2  0  0  0  0  0  0  0  0  0
    2.1529   -1.2760   10.1529 N   0  0  0  0  0  0  0  0  0  0  0  0
    2.0453   -2.5149    9.2816 C   0  0  2  0  0  0  0  0  0  0  0  0
    2.3676   -3.6135   10.2478 C   0  0  2  0  0  0  0  0  0  0  0  0
    1.1704   -4.4908   10.5060 C   0  0  2  0  0  0  0  0  0  0  0  0
    1.2374   -0.2955   10.2863 C   0  0  0  0  0  0  0  0  0  0  0  0
    1.2872    0.5189   11.2493 O   0  0  0  0  0  0  0  0  0  0  0  0
    0.1829   -0.3451    9.2428 C   0  0  0  0  0  0  0  0  0  0  0  0
   -1.1964   -0.5656    9.6549 C   0  0  0  0  0  0  0  0  0  0  0  0
   -1.5785   -0.7618   10.9749 F   0  0  0  0  0  0  0  0  0  0  0  0
   -2.2132   -0.6087    8.7414 C   0  0  0  0  0  0  0  0  0  0  0  0
   -1.8601   -0.5094    7.3309 C   0  0  0  0  0  0  0  0  0  0  0  0
   -0.5320   -0.3242    6.9985 C   0  0  0  0  0  0  0  0  0  0  0  0
    0.4698   -0.0818    7.9111 C   0  0  0  0  0  0  0  0  0  0  0  0
    1.7920    0.2338    7.4004 N   0  0  0  0  0  0  0  0  0  0  0  0
    2.2460   -0.0112    6.1420 N   0  0  0  0  0  0  0  0  0  0  0  0
    3.5033    0.3363    6.1843 C   0  0  0  0  0  0  0  0  0  0  0  0
    3.7718    0.9161    7.4083 C   0  0  0  0  0  0  0  0  0  0  0  0
    2.7091    0.9351    8.1233 N   0  0  0  0  0  0  0  0  0  0  0  0
   -3.3781   -3.8755   15.9311 H   0  0  0  0  0  0  0  0  0  0  0  0
   -1.8611   -4.7652   16.0618 H   0  0  0  0  0  0  0  0  0  0  0  0
   -1.8524   -2.9991   16.0402 H   0  0  0  0  0  0  0  0  0  0  0  0
   -4.5654   -4.1180   10.6764 H   0  0  0  0  0  0  0  0  0  0  0  0
   -3.3619   -5.1486    9.8972 H   0  0  0  0  0  0  0  0  0  0  0  0
   -4.4384   -5.8243   11.1228 H   0  0  0  0  0  0  0  0  0  0  0  0
    2.2100   -3.7974   13.3905 H   0  0  0  0  0  0  0  0  0  0  0  0
    1.3549   -2.3783   12.8261 H   0  0  0  0  0  0  0  0  0  0  0  0
    3.8253   -3.4913   11.9113 H   0  0  0  0  0  0  0  0  0  0  0  0
    4.1430   -1.3453   10.8849 H   0  0  0  0  0  0  0  0  0  0  0  0
    2.9630   -0.8962   12.1098 H   0  0  0  0  0  0  0  0  0  0  0  0
    2.7750   -2.4246    8.4758 H   0  0  0  0  0  0  0  0  0  0  0  0
    1.0614   -2.6000    8.8183 H   0  0  0  0  0  0  0  0  0  0  0  0
    3.1116   -4.2495    9.7661 H   0  0  0  0  0  0  0  0  0  0  0  0
    0.3602   -4.2710    9.8097 H   0  0  0  0  0  0  0  0  0  0  0  0
    1.4298   -5.5446   10.3989 H   0  0  0  0  0  0  0  0  0  0  0  0
   -3.2298   -0.6869    9.0982 H   0  0  0  0  0  0  0  0  0  0  0  0
   -2.6128   -0.5520    6.5571 H   0  0  0  0  0  0  0  0  0  0  0  0
   -0.2838   -0.4147    5.9508 H   0  0  0  0  0  0  0  0  0  0  0  0
    4.1965    0.0435    5.4088 H   0  0  0  0  0  0  0  0  0  0  0  0
    4.6215    1.5092    7.7146 H   0  0  0  0  0  0  0  0  0  0  0  0
  1  2  1  0
  1 32  1  6
  1 33  1  0
  1 34  1  0
  2  3  2  0
  2  8  1  0
  3  4  1  0
  4  5  2  0
  4 10  1  0
  5  6  1  0
  6  7  1  0
  6  8  2  0
  7 35  1  6
  7 36  1  0
  7 37  1  0
  8  9  1  0
 10 11  1  0
 10 17  1  0
 11 12  1  0
 11 38  1  1
 11 39  1  0
 12 13  1  0
 12 16  1  0
 12 40  1  1
 13 14  1  0
 13 41  1  6
 13 42  1  0
 14 15  1  0
 14 18  1  0
 15 16  1  0
 15 43  1  6
 15 44  1  0
 16 17  1  0
 16 45  1  6
 17 46  1  6
 17 47  1  0
 18 19  2  0
 18 20  1  0
 20 21  2  0
 20 26  1  0
 21 22  1  0
 21 23  1  0
 23 24  2  0
 23 48  1  0
 24 25  1  0
 24 49  1  0
 25 26  2  0
 25 50  1  0
 26 27  1  0
 27 28  1  0
 27 31  1  0
 28 29  2  0
 29 30  1  0
 29 51  1  0
 30 31  2  0
 30 52  1  0
M  END
