set 1: 11
     RDKit          3D

 56 61  0  0  1  0  0  0  0  0999 V2000
   -2.3332   -3.8851   15.6262 C   0  0  1  0  0  0  0  0  0  0  0  0
   -2.1685   -3.9023   14.1238 C   0  0  0  0  0  0  0  0  0  0  0  0
   -0.8756   -3.9276   13.7033 N   0  0  0  0  0  0  0  0  0  0  0  0
   -0.5948   -4.2131   12.3776 C   0  0  0  0  0  0  0  0  0  0  0  0
   -1.5984   -4.5771   11.5085 N   0  0  0  0  0  0  0  0  0  0  0  0
   -2.8668   -4.5702   11.9600 C   0  0  0  0  0  0  0  0  0  0  0  0
   -4.0927   -4.9204   11.1510 C   0  0  2  0  0  0  0  0  0  0  0  0
   -5.1958   -5.0165   12.2116 C   0  0  2  0  0  0  0  0  0  0  0  0
   -4.7002   -4.0172   13.4020 C   0  0  2  0  0  0  0  0  0  0  0  0
   -3.2009   -4.1634   13.2655 C   0  0  0  0  0  0  0  0  0  0  0  0
    0.7623   -4.2315   11.9121 N   0  0  0  0  0  0  0  0  0  0  0  0
    1.8018   -3.3186   12.4994 C   0  0  2  0  0  0  0  0  0  0  0  0
    2.9019   -3.0312   11.5568 C   0  0  2  0  0  0  0  0  0  0  0  0
    3.1240   -1.5230   11.2307 C   0  0  2  0  0  0  0  0  0  0  0  0
    2.1529   -1.2760   10.1529 N   0  0  0  0  0  0  0  0  0  0  0  0
    2.0453   -2.5149    9.2816 C   0  0  2  0  0  0  0  0  0  0  0  0
    2.3676   -3.6135   10.2478 C   0  0  2  0  0  0  0  0  0  0  0  0
    1.1704   -4.4908   10.5060 C   0  0  2  0  0  0  0  0  0  0  0  0
    1.2374   -0.2955   10.2863 C   0  0  0  0  0  0  0  0  0  0  0  0
    1.2872    0.5189   11.2493 O   0  0  0  0  0  0  0  0  0  0  0  0
    0.1829   -0.3451    9.2428 C   0  0  0  0  0  0  0  0  0  0  0  0
   -1.1964   -0.5656    9.6549 C   0  0  0  0  0  0  0  0  0  0  0  0
   -1.5785   -0.7618   10.9749 F   0  0  0  0  0  0  0  0  0  0  0  0
   -2.2132   -0.6087    8.7414 C   0  0  0  0  0  0  0  0  0  0  0  0
   -1.8601   -0.5094    7.3309 C   0  0  0  0  0  0  0  0  0  0  0  0
   -0.5320   -0.3242    6.9985 C   0  0  0  0  0  0  0  0  0  0  0  0
    0.4698   -0.0818    7.9111 C   0  0  0  0  0  0  0  0  0  0  0  0
    1.7920    0.2338    7.4004 N   0  0  0  0  0  0  0  0  0  0  0  0
    2.2460   -0.0112    6.1420 N   0  0  0  0  0  0  0  0  0  0  0  0
    3.5033    0.3363    6.1843 C   0  0  0  0  0  0  0  0  0  0  0  0
    3.7718    0.9161    7.4083 C   0  0  0  0  0  0  0  0  0  0  0  0
    2.7091    0.9351    8.1233 N   0  0  0  0  0  0  0  0  0  0  0  0
   -3.3815   -3.8092   15.9153 H   0  0  0  0  0  0  0  0  0  0  0  0
   -1.9285   -4.7991   16.0620 H   0  0  0  0  0  0  0  0  0  0  0  0
   -1.8041   -3.0356   16.0595 H   0  0  0  0  0  0  0  0  0  0  0  0
   -3.9920   -5.8579   10.6028 H   0  0  0  0  0  0  0  0  0  0  0  0
   -4.3187   -4.1363   10.4272 H   0  0  0  0  0  0  0  0  0  0  0  0
   -5.2535   -6.0439   12.5760 H   0  0  0  0  0  0  0  0  0  0  0  0
   -6.1798   -4.7721   11.8097 H   0  0  0  0  0  0  0  0  0  0  0  0
   -5.1065   -4.3248   14.3663 H   0  0  0  0  0  0  0  0  0  0  0  0
   -5.0370   -2.9990   13.2028 H   0  0  0  0  0  0  0  0  0  0  0  0
    2.2127   -3.7606   13.4078 H   0  0  0  0  0  0  0  0  0  0  0  0
    1.3127   -2.4000   12.8284 H   0  0  0  0  0  0  0  0  0  0  0  0
    3.8368   -3.4793   11.8978 H   0  0  0  0  0  0  0  0  0  0  0  0
    4.1247   -1.4362   10.8055 H   0  0  0  0  0  0  0  0  0  0  0  0
    3.0877   -0.8625   12.0989 H   0  0  0  0  0  0  0  0  0  0  0  0
    2.8745   -2.4752    8.5742 H   0  0  0  0  0  0  0  0  0  0  0  0
    1.1371   -2.6472    8.6923 H   0  0  0  0  0  0  0  0  0  0  0  0
    3.1174   -4.2702    9.8030 H   0  0  0  0  0  0  0  0  0  0  0  0
    0.3141   -4.2641    9.8710 H   0  0  0  0  0  0  0  0  0  0  0  0
    1.3835   -5.5553   10.4012 H   0  0  0  0  0  0  0  0  0  0  0  0
   -3.2352   -0.7115    9.0758 H   0  0  0  0  0  0  0  0  0  0  0  0
   -2.6276   -0.5837    6.5746 H   0  0  0  0  0  0  0  0  0  0  0  0
   -0.2474   -0.3774    5.9570 H   0  0  0  0  0  0  0  0  0  0  0  0
    4.1852    0.1812    5.3612 H   0  0  0  0  0  0  0  0  0  0  0  0
    4.7179    1.3032    7.7571 H   0  0  0  0  0  0  0  0  0  0  0  0
  1  2  1  0
  1 33  1  6
  1 34  1  0
  1 35  1  0
  2  3  2  0
  2 10  1  0
  3  4  1  0
  4  5  2  0
  4 11  1  0
  5  6  1  0
  6  7  1  0
  6 10  2  0
  7  8  1  0
  7 36  1  6
  7 37  1  0
  8  9  1  0
  8 38  1  1
  8 39  1  0
  9 10  1  0
  9 40  1  1
  9 41  1  0
 11 12  1  0
 11 18  1  0
 12 13  1  0
 12 42  1  1
 12 43  1  0
 13 14  1  0
 13 17  1  0
 13 44  1  1
 14 15  1  0
 14 45  1  6
 14 46  1  0
 15 16  1  0
 15 19  1  0
 16 17  1  0
 16 47  1  6
 16 48  1  0
 17 18  1  0
 17 49  1  6
 18 50  1  6
 18 51  1  0
 19 20  2  0
 19 21  1  0
 21 22  2  0
 21 27  1  0
 22 23  1  0
 22 24  1  0
 24 25  2  0
 24 52  1  0
 25 26  1  0
 25 53  1  0
 26 27  2  0
 26 54  1  0
 27 28  1  0
 28 29  1  0
 28 32  1  0
 29 30  2  0
 30 31  1  0
 30 55  1  0
 31 32  2  0
 31 56  1  0
M  END
