set 1: 27
     RDKit          3D

 52 56  0  0  1  0  0  0  0  0999 V2000
   -2.3332   -3.8851   15.6262 C   0  0  1  0  0  0  0  0  0  0  0  0
   -2.1685   -3.9023   14.1238 C   0  0  0  0  0  0  0  0  0  0  0  0
   -3.2009   -4.1634   13.2655 C   0  0  0  0  0  0  0  0  0  0  0  0
   -2.8668   -4.5702   11.9600 C   0  0  0  0  0  0  0  0  0  0  0  0
   -3.8684   -4.9395   10.8402 C   0  0  1  0  0  0  0  0  0  0  0  0
   -1.5984   -4.5771   11.5085 N   0  0  0  0  0  0  0  0  0  0  0  0
   -0.5948   -4.2131   12.3776 C   0  0  0  0  0  0  0  0  0  0  0  0
   -0.8756   -3.9276   13.7033 N   0  0  0  0  0  0  0  0  0  0  0  0
    0.7623   -4.2315   11.9121 N   0  0  0  0  0  0  0  0  0  0  0  0
    1.1704   -4.4908   10.5060 C   0  0  2  0  0  0  0  0  0  0  0  0
    2.3676   -3.6135   10.2478 C   0  0  1  0  0  0  0  0  0  0  0  0
    3.2140   -4.2193    9.9208 H   0  0  0  0  0  0  0  0  0  0  0  0
    2.0453   -2.5149    9.2816 C   0  0  2  0  0  0  0  0  0  0  0  0
    2.1529   -1.2760   10.1529 N   0  0  0  0  0  0  0  0  0  0  0  0
    3.1240   -1.5230   11.2307 C   0  0  2  0  0  0  0  0  0  0  0  0
    2.9019   -3.0312   11.5568 C   0  0  1  0  0  0  0  0  0  0  0  0
    3.8461   -3.5080   11.8248 H   0  0  0  0  0  0  0  0  0  0  0  0
    1.8018   -3.3186   12.4994 C   0  0  2  0  0  0  0  0  0  0  0  0
    1.2374   -0.2955   10.2863 C   0  0  0  0  0  0  0  0  0  0  0  0
    1.2872    0.5189   11.2493 O   0  0  0  0  0  0  0  0  0  0  0  0
    0.1829   -0.3451    9.2428 C   0  0  0  0  0  0  0  0  0  0  0  0
   -1.1964   -0.5656    9.6549 C   0  0  0  0  0  0  0  0  0  0  0  0
   -1.5785   -0.7618   10.9749 F   0  0  0  0  0  0  0  0  0  0  0  0
   -2.2132   -0.6087    8.7414 C   0  0  0  0  0  0  0  0  0  0  0  0
   -1.8601   -0.5094    7.3309 C   0  0  0  0  0  0  0  0  0  0  0  0
   -0.5320   -0.3242    6.9985 C   0  0  0  0  0  0  0  0  0  0  0  0
    0.4698   -0.0818    7.9111 C   0  0  0  0  0  0  0  0  0  0  0  0
    1.7920    0.2338    7.4004 N   0  0  0  0  0  0  0  0  0  0  0  0
    2.7091    0.9351    8.1233 N   0  0  0  0  0  0  0  0  0  0  0  0
    3.7718    0.9161    7.4083 C   0  0  0  0  0  0  0  0  0  0  0  0
    3.5033    0.3363    6.1843 C   0  0  0  0  0  0  0  0  0  0  0  0
    2.2460   -0.0112    6.1420 N   0  0  0  0  0  0  0  0  0  0  0  0
   -3.3781   -4.0644   15.8792 H   0  0  0  0  0  0  0  0  0  0  0  0
   -1.7132   -4.6649   16.0686 H   0  0  0  0  0  0  0  0  0  0  0  0
   -2.0269   -2.9136   16.0141 H   0  0  0  0  0  0  0  0  0  0  0  0
   -4.2335   -4.0439   13.5553 H   0  0  0  0  0  0  0  0  0  0  0  0
   -4.8867   -4.8372   11.2153 H   0  0  0  0  0  0  0  0  0  0  0  0
   -3.7254   -4.2721    9.9903 H   0  0  0  0  0  0  0  0  0  0  0  0
   -3.6986   -5.9693   10.5260 H   0  0  0  0  0  0  0  0  0  0  0  0
    0.3173   -4.2656    9.8642 H   0  0  0  0  0  0  0  0  0  0  0  0
    1.3887   -5.5520   10.3811 H   0  0  0  0  0  0  0  0  0  0  0  0
    1.0910   -2.6908    8.7852 H   0  0  0  0  0  0  0  0  0  0  0  0
    2.8041   -2.4669    8.4994 H   0  0  0  0  0  0  0  0  0  0  0  0
    2.9684   -0.8810   12.1005 H   0  0  0  0  0  0  0  0  0  0  0  0
    4.1278   -1.3243   10.8533 H   0  0  0  0  0  0  0  0  0  0  0  0
    2.2085   -3.8012   13.3891 H   0  0  0  0  0  0  0  0  0  0  0  0
    1.3311   -2.3939   12.8361 H   0  0  0  0  0  0  0  0  0  0  0  0
   -3.2347   -0.6896    9.0842 H   0  0  0  0  0  0  0  0  0  0  0  0
   -2.6297   -0.5451    6.5734 H   0  0  0  0  0  0  0  0  0  0  0  0
   -0.2541   -0.4406    5.9604 H   0  0  0  0  0  0  0  0  0  0  0  0
    4.7204    1.2989    7.7567 H   0  0  0  0  0  0  0  0  0  0  0  0
    4.1818    0.2008    5.3541 H   0  0  0  0  0  0  0  0  0  0  0  0
  1  2  1  0
  1 33  1  6
  1 34  1  0
  1 35  1  0
  2  3  2  0
  2  8  1  0
  3  4  1  0
  3 36  1  0
  4  5  1  0
  4  6  2  0
  5 37  1  1
  5 38  1  0
  5 39  1  0
  6  7  1  0
  7  8  2  0
  7  9  1  0
  9 10  1  0
  9 18  1  0
 10 11  1  0
 10 40  1  6
 10 41  1  0
 11 12  1  6
 11 13  1  0
 11 16  1  0
 13 14  1  0
 13 42  1  6
 13 43  1  0
 14 15  1  0
 14 19  1  0
 15 16  1  0
 15 44  1  1
 15 45  1  0
 16 17  1  1
 16 18  1  0
 18 46  1  1
 18 47  1  0
 19 20  2  0
 19 21  1  0
 21 22  2  0
 21 27  1  0
 22 23  1  0
 22 24  1  0
 24 25  2  0
 24 48  1  0
 25 26  1  0
 25 49  1  0
 26 27  2  0
 26 50  1  0
 27 28  1  0
 28 29  1  0
 28 32  1  0
 29 30  2  0
 30 31  1  0
 30 51  1  0
 31 32  2  0
 31 52  1  0
M  END
