set 1: 17
     RDKit          3D

 50 54  0  0  1  0  0  0  0  0999 V2000
   -2.2167   -3.4204   15.5946 C   0  0  1  0  0  0  0  0  0  0  0  0
   -2.1226   -3.8045   14.0989 C   0  0  0  0  0  0  0  0  0  0  0  0
   -3.1974   -4.1922   13.2767 C   0  0  0  0  0  0  0  0  0  0  0  0
   -2.9159   -4.4711   11.9677 C   0  0  0  0  0  0  0  0  0  0  0  0
   -3.9136   -4.7954   11.0711 O   0  0  0  0  0  0  0  0  0  0  0  0
   -1.6370   -4.4807   11.5059 N   0  0  0  0  0  0  0  0  0  0  0  0
   -0.5948   -4.2131   12.3776 C   0  0  0  0  0  0  0  0  0  0  0  0
   -0.8444   -3.8322   13.6767 N   0  0  0  0  0  0  0  0  0  0  0  0
    0.7623   -4.2315   11.9121 N   0  0  0  0  0  0  0  0  0  0  0  0
    1.8018   -3.3186   12.4994 C   0  0  2  0  0  0  0  0  0  0  0  0
    2.9019   -3.0312   11.5568 C   0  0  2  0  0  0  0  0  0  0  0  0
    3.1240   -1.5230   11.2307 C   0  0  2  0  0  0  0  0  0  0  0  0
    2.1529   -1.2760   10.1529 N   0  0  0  0  0  0  0  0  0  0  0  0
    2.0453   -2.5149    9.2816 C   0  0  2  0  0  0  0  0  0  0  0  0
    2.3676   -3.6135   10.2478 C   0  0  2  0  0  0  0  0  0  0  0  0
    1.1704   -4.4908   10.5060 C   0  0  2  0  0  0  0  0  0  0  0  0
    1.2374   -0.2955   10.2863 C   0  0  0  0  0  0  0  0  0  0  0  0
    1.2872    0.5189   11.2493 O   0  0  0  0  0  0  0  0  0  0  0  0
    0.1829   -0.3451    9.2428 C   0  0  0  0  0  0  0  0  0  0  0  0
   -1.1964   -0.5656    9.6549 C   0  0  0  0  0  0  0  0  0  0  0  0
   -1.5785   -0.7618   10.9749 F   0  0  0  0  0  0  0  0  0  0  0  0
   -2.2132   -0.6087    8.7414 C   0  0  0  0  0  0  0  0  0  0  0  0
   -1.8601   -0.5094    7.3309 C   0  0  0  0  0  0  0  0  0  0  0  0
   -0.5320   -0.3242    6.9985 C   0  0  0  0  0  0  0  0  0  0  0  0
    0.4698   -0.0818    7.9111 C   0  0  0  0  0  0  0  0  0  0  0  0
    1.7920    0.2338    7.4004 N   0  0  0  0  0  0  0  0  0  0  0  0
    2.2460   -0.0112    6.1420 N   0  0  0  0  0  0  0  0  0  0  0  0
    3.5033    0.3363    6.1843 C   0  0  0  0  0  0  0  0  0  0  0  0
    3.7718    0.9161    7.4083 C   0  0  0  0  0  0  0  0  0  0  0  0
    2.7091    0.9351    8.1233 N   0  0  0  0  0  0  0  0  0  0  0  0
   -2.7712   -2.4890   15.7046 H   0  0  0  0  0  0  0  0  0  0  0  0
   -2.7387   -4.2009   16.1472 H   0  0  0  0  0  0  0  0  0  0  0  0
   -1.2317   -3.2861   16.0437 H   0  0  0  0  0  0  0  0  0  0  0  0
   -4.2131   -4.2101   13.6412 H   0  0  0  0  0  0  0  0  0  0  0  0
   -3.5977   -5.0115   10.1473 H   0  0  0  0  0  0  0  0  0  0  0  0
    2.1869   -3.7692   13.4147 H   0  0  0  0  0  0  0  0  0  0  0  0
    1.3046   -2.3956   12.8041 H   0  0  0  0  0  0  0  0  0  0  0  0
    3.8209   -3.5231   11.8789 H   0  0  0  0  0  0  0  0  0  0  0  0
    4.1251   -1.3555   10.8330 H   0  0  0  0  0  0  0  0  0  0  0  0
    3.0221   -0.9025   12.1231 H   0  0  0  0  0  0  0  0  0  0  0  0
    2.8042   -2.4479    8.5010 H   0  0  0  0  0  0  0  0  0  0  0  0
    1.0860   -2.6523    8.7840 H   0  0  0  0  0  0  0  0  0  0  0  0
    3.1430   -4.2320    9.7927 H   0  0  0  0  0  0  0  0  0  0  0  0
    0.3399   -4.3248    9.8193 H   0  0  0  0  0  0  0  0  0  0  0  0
    1.4403   -5.5441   10.4262 H   0  0  0  0  0  0  0  0  0  0  0  0
   -3.2342   -0.7665    9.0573 H   0  0  0  0  0  0  0  0  0  0  0  0
   -2.6169   -0.5964    6.5647 H   0  0  0  0  0  0  0  0  0  0  0  0
   -0.2998   -0.2406    5.9458 H   0  0  0  0  0  0  0  0  0  0  0  0
    4.1542    0.2034    5.3320 H   0  0  0  0  0  0  0  0  0  0  0  0
    4.6916    1.3574    7.7650 H   0  0  0  0  0  0  0  0  0  0  0  0
  1  2  1  0
  1 31  1  6
  1 32  1  0
  1 33  1  0
  2  3  2  0
  2  8  1  0
  3  4  1  0
  3 34  1  0
  4  5  1  0
  4  6  2  0
  5 35  1  0
  6  7  1  0
  7  8  2  0
  7  9  1  0
  9 10  1  0
  9 16  1  0
 10 11  1  0
 10 36  1  1
 10 37  1  0
 11 12  1  0
 11 15  1  0
 11 38  1  1
 12 13  1  0
 12 39  1  6
 12 40  1  0
 13 14  1  0
 13 17  1  0
 14 15  1  0
 14 41  1  6
 14 42  1  0
 15 16  1  0
 15 43  1  6
 16 44  1  6
 16 45  1  0
 17 18  2  0
 17 19  1  0
 19 20  2  0
 19 25  1  0
 20 21  1  0
 20 22  1  0
 22 23  2  0
 22 46  1  0
 23 24  1  0
 23 47  1  0
 24 25  2  0
 24 48  1  0
 25 26  1  0
 26 27  1  0
 26 30  1  0
 27 28  2  0
 28 29  1  0
 28 49  1  0
 29 30  2  0
 29 50  1  0
M  END
