set 2: 21
     RDKit          3D

 52 56  0  0  1  0  0  0  0  0999 V2000
   -3.4521   -4.5498   10.4414 C   0  0  1  0  0  0  0  0  0  0  0  0
   -2.5452   -4.3434   11.7168 C   0  0  0  0  0  0  0  0  0  0  0  0
   -2.9880   -3.7789   12.8374 C   0  0  0  0  0  0  0  0  0  0  0  0
   -2.0793   -3.4860   13.8719 C   0  0  0  0  0  0  0  0  0  0  0  0
   -2.6040   -2.9900   15.1628 C   0  0  1  0  0  0  0  0  0  0  0  0
   -0.7317   -3.6430   13.7057 N   0  0  0  0  0  0  0  0  0  0  0  0
   -0.3832   -4.1795   12.4588 C   0  0  0  0  0  0  0  0  0  0  0  0
   -1.2252   -4.6452   11.4854 N   0  0  0  0  0  0  0  0  0  0  0  0
    0.9938   -4.4401   12.2283 N   0  0  0  0  0  0  0  0  0  0  0  0
    1.5492   -4.9431   10.9937 C   0  0  2  0  0  0  0  0  0  0  0  0
    2.4276   -3.8446   10.4785 C   0  0  1  0  0  0  0  0  0  0  0  0
    1.6766   -2.7695    9.6818 C   0  0  2  0  0  0  0  0  0  0  0  0
    1.8348   -1.5353   10.4619 N   0  0  0  0  0  0  0  0  0  0  0  0
    2.9290   -1.7029   11.4127 C   0  0  2  0  0  0  0  0  0  0  0  0
    3.0576   -3.2335   11.7395 C   0  0  1  0  0  0  0  0  0  0  0  0
    2.0863   -3.5979   12.8323 C   0  0  2  0  0  0  0  0  0  0  0  0
    1.1302   -0.4044   10.3271 C   0  0  0  0  0  0  0  0  0  0  0  0
    1.1932    0.5615   11.0967 O   0  0  0  0  0  0  0  0  0  0  0  0
    0.0297   -0.3410    9.2547 C   0  0  0  0  0  0  0  0  0  0  0  0
   -1.2834   -0.6919    9.5792 C   0  0  0  0  0  0  0  0  0  0  0  0
   -2.3079   -0.4353    8.6899 C   0  0  0  0  0  0  0  0  0  0  0  0
   -2.0116   -0.0091    7.4296 C   0  0  0  0  0  0  0  0  0  0  0  0
   -3.2826    0.3388    6.3149 Cl  0  0  0  0  0  0  0  0  0  0  0  0
   -0.7058    0.1684    6.9928 C   0  0  0  0  0  0  0  0  0  0  0  0
    0.3672   -0.0475    7.8889 C   0  0  0  0  0  0  0  0  0  0  0  0
    1.7010    0.1459    7.3596 N   0  0  0  0  0  0  0  0  0  0  0  0
    2.8263    0.4352    8.0847 N   0  0  0  0  0  0  0  0  0  0  0  0
    3.7575    0.7383    7.2066 C   0  0  0  0  0  0  0  0  0  0  0  0
    3.1153    0.6085    5.9243 C   0  0  0  0  0  0  0  0  0  0  0  0
    1.8469    0.2624    6.0346 N   0  0  0  0  0  0  0  0  0  0  0  0
   -4.4565   -4.1533   10.5947 H   0  0  0  0  0  0  0  0  0  0  0  0
   -3.0180   -4.0432    9.5786 H   0  0  0  0  0  0  0  0  0  0  0  0
   -3.5408   -5.6109   10.2057 H   0  0  0  0  0  0  0  0  0  0  0  0
   -4.0318   -3.5373   12.9767 H   0  0  0  0  0  0  0  0  0  0  0  0
   -3.6940   -2.9516   15.1648 H   0  0  0  0  0  0  0  0  0  0  0  0
   -2.2896   -3.6416   15.9791 H   0  0  0  0  0  0  0  0  0  0  0  0
   -2.2307   -1.9852   15.3638 H   0  0  0  0  0  0  0  0  0  0  0  0
    0.7529   -5.1771   10.2855 H   0  0  0  0  0  0  0  0  0  0  0  0
    2.1088   -5.8587   11.1893 H   0  0  0  0  0  0  0  0  0  0  0  0
    3.2442   -4.2592    9.8843 H   0  0  0  0  0  0  0  0  0  0  0  0
    0.6049   -2.9740    9.6973 H   0  0  0  0  0  0  0  0  0  0  0  0
    2.0398   -2.7041    8.6579 H   0  0  0  0  0  0  0  0  0  0  0  0
    2.8077   -1.1450   12.3423 H   0  0  0  0  0  0  0  0  0  0  0  0
    3.8652   -1.3985   10.9421 H   0  0  0  0  0  0  0  0  0  0  0  0
    4.0937   -3.5557   11.8578 H   0  0  0  0  0  0  0  0  0  0  0  0
    2.6082   -4.1633   13.6056 H   0  0  0  0  0  0  0  0  0  0  0  0
    1.6482   -2.7095   13.2900 H   0  0  0  0  0  0  0  0  0  0  0  0
   -1.5050   -1.1746   10.5209 H   0  0  0  0  0  0  0  0  0  0  0  0
   -3.3336   -0.5755    8.9985 H   0  0  0  0  0  0  0  0  0  0  0  0
   -0.5316    0.4836    5.9735 H   0  0  0  0  0  0  0  0  0  0  0  0
    4.7643    1.0112    7.4874 H   0  0  0  0  0  0  0  0  0  0  0  0
    3.5578    0.7584    4.9503 H   0  0  0  0  0  0  0  0  0  0  0  0
  1  2  1  0
  1 31  1  1
  1 32  1  0
  1 33  1  0
  2  3  2  0
  2  8  1  0
  3  4  1  0
  3 34  1  0
  4  5  1  0
  4  6  2  0
  5 35  1  6
  5 36  1  0
  5 37  1  0
  6  7  1  0
  7  8  2  0
  7  9  1  0
  9 10  1  0
  9 16  1  0
 10 11  1  0
 10 38  1  6
 10 39  1  0
 11 12  1  0
 11 15  1  0
 11 40  1  6
 12 13  1  0
 12 41  1  6
 12 42  1  0
 13 14  1  0
 13 17  1  0
 14 15  1  0
 14 43  1  1
 14 44  1  0
 15 16  1  0
 15 45  1  1
 16 46  1  1
 16 47  1  0
 17 18  2  0
 17 19  1  0
 19 20  2  0
 19 25  1  0
 20 21  1  0
 20 48  1  0
 21 22  2  0
 21 49  1  0
 22 23  1  0
 22 24  1  0
 24 25  2  0
 24 50  1  0
 25 26  1  0
 26 27  1  0
 26 30  1  0
 27 28  2  0
 28 29  1  0
 28 51  1  0
 29 30  2  0
 29 52  1  0
M  END
