set 2: 12
     RDKit          3D

 55 59  0  0  1  0  0  0  0  0999 V2000
   -3.8186   -0.6750    9.1702 C   0  0  1  0  0  0  0  0  0  0  0  0
   -2.4053   -0.4548    8.7182 C   0  0  0  0  0  0  0  0  0  0  0  0
   -2.1475   -0.0376    7.4465 C   0  0  0  0  0  0  0  0  0  0  0  0
   -0.8555    0.1342    6.9682 C   0  0  0  0  0  0  0  0  0  0  0  0
    0.2444   -0.0781    7.8321 C   0  0  0  0  0  0  0  0  0  0  0  0
   -0.0512   -0.3617    9.2096 C   0  0  0  0  0  0  0  0  0  0  0  0
   -1.3542   -0.7077    9.5769 C   0  0  0  0  0  0  0  0  0  0  0  0
    1.0820   -0.4204   10.2477 C   0  0  0  0  0  0  0  0  0  0  0  0
    1.1707    0.5505   11.0085 O   0  0  0  0  0  0  0  0  0  0  0  0
    1.7882   -1.5518   10.3682 N   0  0  0  0  0  0  0  0  0  0  0  0
    2.9110   -1.7155   11.2856 C   0  0  2  0  0  0  0  0  0  0  0  0
    3.0468   -3.2442   11.6186 C   0  0  1  0  0  0  0  0  0  0  0  0
    2.1091   -3.5992   12.7434 C   0  0  2  0  0  0  0  0  0  0  0  0
    0.9969   -4.4431   12.1792 N   0  0  0  0  0  0  0  0  0  0  0  0
    1.5127   -4.9554   10.9313 C   0  0  2  0  0  0  0  0  0  0  0  0
    2.3768   -3.8622   10.3818 C   0  0  1  0  0  0  0  0  0  0  0  0
    1.6035   -2.7908    9.6016 C   0  0  2  0  0  0  0  0  0  0  0  0
   -0.3719   -4.1780   12.4505 C   0  0  0  0  0  0  0  0  0  0  0  0
   -1.2445   -4.6484   11.5069 N   0  0  0  0  0  0  0  0  0  0  0  0
   -2.5561   -4.3422   11.7770 C   0  0  0  0  0  0  0  0  0  0  0  0
   -3.5026   -4.5552   10.5318 C   0  0  1  0  0  0  0  0  0  0  0  0
   -2.9629   -3.7694   12.9070 C   0  0  0  0  0  0  0  0  0  0  0  0
   -2.0220   -3.4716   13.9108 C   0  0  0  0  0  0  0  0  0  0  0  0
   -2.5054   -2.9659   15.2141 C   0  0  1  0  0  0  0  0  0  0  0  0
   -0.6805   -3.6326   13.7040 N   0  0  0  0  0  0  0  0  0  0  0  0
    1.6138    0.1571    7.3836 N   0  0  0  0  0  0  0  0  0  0  0  0
    2.5477    0.6971    8.1838 N   0  0  0  0  0  0  0  0  0  0  0  0
    3.6051    0.7322    7.4103 C   0  0  0  0  0  0  0  0  0  0  0  0
    3.2842    0.2111    6.1574 C   0  0  0  0  0  0  0  0  0  0  0  0
    2.0250   -0.1518    6.1427 N   0  0  0  0  0  0  0  0  0  0  0  0
   -3.8205   -1.0044   10.2092 H   0  0  0  0  0  0  0  0  0  0  0  0
   -4.3772    0.2570    9.0835 H   0  0  0  0  0  0  0  0  0  0  0  0
   -4.2849   -1.4375    8.5464 H   0  0  0  0  0  0  0  0  0  0  0  0
   -2.9777    0.1420    6.7786 H   0  0  0  0  0  0  0  0  0  0  0  0
   -0.6908    0.4357    5.9438 H   0  0  0  0  0  0  0  0  0  0  0  0
   -1.5566   -1.0222   10.5917 H   0  0  0  0  0  0  0  0  0  0  0  0
    2.8053   -1.1078   12.1866 H   0  0  0  0  0  0  0  0  0  0  0  0
    3.8100   -1.3652   10.7774 H   0  0  0  0  0  0  0  0  0  0  0  0
    4.0702   -3.5760   11.7979 H   0  0  0  0  0  0  0  0  0  0  0  0
    1.6999   -2.7172   13.2383 H   0  0  0  0  0  0  0  0  0  0  0  0
    2.6268   -4.1761   13.5100 H   0  0  0  0  0  0  0  0  0  0  0  0
    0.7416   -5.2601   10.2230 H   0  0  0  0  0  0  0  0  0  0  0  0
    2.1075   -5.8426   11.1504 H   0  0  0  0  0  0  0  0  0  0  0  0
    3.1298   -4.2924    9.7199 H   0  0  0  0  0  0  0  0  0  0  0  0
    1.9997   -2.6672    8.5932 H   0  0  0  0  0  0  0  0  0  0  0  0
    0.5440   -3.0412    9.5180 H   0  0  0  0  0  0  0  0  0  0  0  0
   -4.5506   -4.5304   10.8284 H   0  0  0  0  0  0  0  0  0  0  0  0
   -3.3304   -3.7718    9.7937 H   0  0  0  0  0  0  0  0  0  0  0  0
   -3.3010   -5.5193   10.0643 H   0  0  0  0  0  0  0  0  0  0  0  0
   -4.0109   -3.5595   13.0636 H   0  0  0  0  0  0  0  0  0  0  0  0
   -3.2105   -3.6685   15.6577 H   0  0  0  0  0  0  0  0  0  0  0  0
   -1.6761   -2.8321   15.9094 H   0  0  0  0  0  0  0  0  0  0  0  0
   -3.0014   -2.0039   15.0871 H   0  0  0  0  0  0  0  0  0  0  0  0
    4.5669    1.1153    7.7304 H   0  0  0  0  0  0  0  0  0  0  0  0
    3.9459    0.1068    5.3056 H   0  0  0  0  0  0  0  0  0  0  0  0
  1  2  1  0
  1 31  1  1
  1 32  1  0
  1 33  1  0
  2  3  2  0
  2  7  1  0
  3  4  1  0
  3 34  1  0
  4  5  2  0
  4 35  1  0
  5  6  1  0
  5 26  1  0
  6  7  2  0
  6  8  1  0
  7 36  1  0
  8  9  2  0
  8 10  1  0
 10 11  1  0
 10 17  1  0
 11 12  1  0
 11 37  1  1
 11 38  1  0
 12 13  1  0
 12 16  1  0
 12 39  1  1
 13 14  1  0
 13 40  1  1
 13 41  1  0
 14 15  1  0
 14 18  1  0
 15 16  1  0
 15 42  1  6
 15 43  1  0
 16 17  1  0
 16 44  1  6
 17 45  1  6
 17 46  1  0
 18 19  2  0
 18 25  1  0
 19 20  1  0
 20 21  1  0
 20 22  2  0
 21 47  1  1
 21 48  1  0
 21 49  1  0
 22 23  1  0
 22 50  1  0
 23 24  1  0
 23 25  2  0
 24 51  1  1
 24 52  1  0
 24 53  1  0
 26 27  1  0
 26 30  1  0
 27 28  2  0
 28 29  1  0
 28 54  1  0
 29 30  2  0
 29 55  1  0
M  END
