set 2: 8
     RDKit          3D

 52 56  0  0  1  0  0  0  0  0999 V2000
   -2.5932   -2.9633   15.1783 C   0  0  1  0  0  0  0  0  0  0  0  0
   -2.0758   -3.4604   13.8848 C   0  0  0  0  0  0  0  0  0  0  0  0
   -2.9896   -3.7468   12.8531 C   0  0  0  0  0  0  0  0  0  0  0  0
   -2.5538   -4.3122   11.7301 C   0  0  0  0  0  0  0  0  0  0  0  0
   -3.4663   -4.5117   10.4576 C   0  0  1  0  0  0  0  0  0  0  0  0
   -1.2364   -4.6211   11.4938 N   0  0  0  0  0  0  0  0  0  0  0  0
   -0.3885   -4.1615   12.4650 C   0  0  0  0  0  0  0  0  0  0  0  0
   -0.7297   -3.6248   13.7137 N   0  0  0  0  0  0  0  0  0  0  0  0
    0.9863   -4.4296   12.2293 N   0  0  0  0  0  0  0  0  0  0  0  0
    1.5345   -4.9340   10.9921 C   0  0  2  0  0  0  0  0  0  0  0  0
    2.4174   -3.8397   10.4755 C   0  0  1  0  0  0  0  0  0  0  0  0
    3.2649   -4.2316    9.9103 H   0  0  0  0  0  0  0  0  0  0  0  0
    1.6697   -2.7593    9.6828 C   0  0  2  0  0  0  0  0  0  0  0  0
    1.8375   -1.5270   10.4641 N   0  0  0  0  0  0  0  0  0  0  0  0
    2.9340   -1.7022   11.4109 C   0  0  2  0  0  0  0  0  0  0  0  0
    3.0551   -3.2340   11.7351 C   0  0  1  0  0  0  0  0  0  0  0  0
    4.0896   -3.5645   11.8474 H   0  0  0  0  0  0  0  0  0  0  0  0
    2.0855   -3.5944   12.8308 C   0  0  2  0  0  0  0  0  0  0  0  0
    1.1389   -0.3920   10.3333 C   0  0  0  0  0  0  0  0  0  0  0  0
    1.2100    0.5724   11.1040 O   0  0  0  0  0  0  0  0  0  0  0  0
    0.0351   -0.3209    9.2648 C   0  0  0  0  0  0  0  0  0  0  0  0
   -1.2788   -0.6648    9.5933 C   0  0  0  0  0  0  0  0  0  0  0  0
   -1.5702   -1.2512   10.7800 F   0  0  0  0  0  0  0  0  0  0  0  0
   -2.3049   -0.4012    8.7079 C   0  0  0  0  0  0  0  0  0  0  0  0
   -2.0106    0.0250    7.4472 C   0  0  0  0  0  0  0  0  0  0  0  0
   -0.7052    0.1958    7.0062 C   0  0  0  0  0  0  0  0  0  0  0  0
    0.3696   -0.0275    7.8983 C   0  0  0  0  0  0  0  0  0  0  0  0
    1.7026    0.1592    7.3646 N   0  0  0  0  0  0  0  0  0  0  0  0
    2.8320    0.4412    8.0863 N   0  0  0  0  0  0  0  0  0  0  0  0
    3.7619    0.7402    7.2053 C   0  0  0  0  0  0  0  0  0  0  0  0
    3.1145    0.6159    5.9251 C   0  0  0  0  0  0  0  0  0  0  0  0
    1.8447    0.2768    6.0392 N   0  0  0  0  0  0  0  0  0  0  0  0
   -3.6802   -2.8730   15.1682 H   0  0  0  0  0  0  0  0  0  0  0  0
   -2.3191   -3.6446   15.9846 H   0  0  0  0  0  0  0  0  0  0  0  0
   -2.1758   -1.9813   15.4037 H   0  0  0  0  0  0  0  0  0  0  0  0
   -4.0415   -3.5188   12.9480 H   0  0  0  0  0  0  0  0  0  0  0  0
   -4.4830   -4.1582   10.6323 H   0  0  0  0  0  0  0  0  0  0  0  0
   -3.0592   -3.9619    9.6085 H   0  0  0  0  0  0  0  0  0  0  0  0
   -3.5188   -5.5670   10.1879 H   0  0  0  0  0  0  0  0  0  0  0  0
    0.7220   -5.1834   10.3078 H   0  0  0  0  0  0  0  0  0  0  0  0
    2.1140   -5.8384   11.1819 H   0  0  0  0  0  0  0  0  0  0  0  0
    0.6308   -3.0431    9.5094 H   0  0  0  0  0  0  0  0  0  0  0  0
    2.1653   -2.6433    8.7175 H   0  0  0  0  0  0  0  0  0  0  0  0
    2.6286   -1.1990   12.3297 H   0  0  0  0  0  0  0  0  0  0  0  0
    3.9091   -1.3565   11.0691 H   0  0  0  0  0  0  0  0  0  0  0  0
    2.5868   -4.1606   13.6170 H   0  0  0  0  0  0  0  0  0  0  0  0
    1.6742   -2.6868   13.2751 H   0  0  0  0  0  0  0  0  0  0  0  0
   -3.3315   -0.5291    9.0184 H   0  0  0  0  0  0  0  0  0  0  0  0
   -2.8070    0.2438    6.7513 H   0  0  0  0  0  0  0  0  0  0  0  0
   -0.5345    0.4920    5.9807 H   0  0  0  0  0  0  0  0  0  0  0  0
    4.7698    1.0113    7.4835 H   0  0  0  0  0  0  0  0  0  0  0  0
    3.5538    0.7688    4.9502 H   0  0  0  0  0  0  0  0  0  0  0  0
  1  2  1  0
  1 33  1  6
  1 34  1  0
  1 35  1  0
  2  3  2  0
  2  8  1  0
  3  4  1  0
  3 36  1  0
  4  5  1  0
  4  6  2  0
  5 37  1  1
  5 38  1  0
  5 39  1  0
  6  7  1  0
  7  8  2  0
  7  9  1  0
  9 10  1  0
  9 18  1  0
 10 11  1  0
 10 40  1  6
 10 41  1  0
 11 12  1  6
 11 13  1  0
 11 16  1  0
 13 14  1  0
 13 42  1  6
 13 43  1  0
 14 15  1  0
 14 19  1  0
 15 16  1  0
 15 44  1  1
 15 45  1  0
 16 17  1  1
 16 18  1  0
 18 46  1  1
 18 47  1  0
 19 20  2  0
 19 21  1  0
 21 22  2  0
 21 27  1  0
 22 23  1  0
 22 24  1  0
 24 25  2  0
 24 48  1  0
 25 26  1  0
 25 49  1  0
 26 27  2  0
 26 50  1  0
 27 28  1  0
 28 29  1  0
 28 32  1  0
 29 30  2  0
 30 31  1  0
 30 51  1  0
 31 32  2  0
 31 52  1  0
M  END
