set 1: 3
     RDKit          3D

 55 59  0  0  1  0  0  0  0  0999 V2000
   -6.8100   -5.1234   13.1761 C   0  0  1  0  0  0  0  0  0  0  0  0
   -5.4306   -4.9348   12.8912 O   0  0  0  0  0  0  0  0  0  0  0  0
   -4.6255   -4.2546   13.7476 C   0  0  0  0  0  0  0  0  0  0  0  0
   -5.0190   -3.7930   14.8209 O   0  0  0  0  0  0  0  0  0  0  0  0
   -3.1982   -4.1929   13.2746 C   0  0  0  0  0  0  0  0  0  0  0  0
   -2.9234   -4.3014   11.9393 C   0  0  0  0  0  0  0  0  0  0  0  0
   -1.6439   -4.3079   11.4787 N   0  0  0  0  0  0  0  0  0  0  0  0
   -0.5948   -4.2131   12.3776 C   0  0  0  0  0  0  0  0  0  0  0  0
   -0.8328   -4.0038   13.7173 N   0  0  0  0  0  0  0  0  0  0  0  0
   -2.1105   -3.9740   14.1410 C   0  0  0  0  0  0  0  0  0  0  0  0
   -2.1940   -3.7961   15.6755 C   0  0  1  0  0  0  0  0  0  0  0  0
   -2.7012   -2.5952   15.9546 F   0  0  0  0  0  0  0  0  0  0  0  0
   -2.9593   -4.7385   16.2276 F   0  0  0  0  0  0  0  0  0  0  0  0
   -0.9983   -3.8739   16.2680 F   0  0  0  0  0  0  0  0  0  0  0  0
    0.7623   -4.2315   11.9121 N   0  0  0  0  0  0  0  0  0  0  0  0
    1.8018   -3.3186   12.4994 C   0  0  2  0  0  0  0  0  0  0  0  0
    2.9019   -3.0312   11.5568 C   0  0  2  0  0  0  0  0  0  0  0  0
    3.1240   -1.5230   11.2307 C   0  0  2  0  0  0  0  0  0  0  0  0
    2.1529   -1.2760   10.1529 N   0  0  0  0  0  0  0  0  0  0  0  0
    2.0453   -2.5149    9.2816 C   0  0  2  0  0  0  0  0  0  0  0  0
    2.3676   -3.6135   10.2478 C   0  0  2  0  0  0  0  0  0  0  0  0
    1.1704   -4.4908   10.5060 C   0  0  2  0  0  0  0  0  0  0  0  0
    1.2374   -0.2955   10.2863 C   0  0  0  0  0  0  0  0  0  0  0  0
    1.2872    0.5189   11.2493 O   0  0  0  0  0  0  0  0  0  0  0  0
    0.1829   -0.3451    9.2428 C   0  0  0  0  0  0  0  0  0  0  0  0
   -1.1964   -0.5656    9.6549 C   0  0  0  0  0  0  0  0  0  0  0  0
   -1.5785   -0.7618   10.9749 F   0  0  0  0  0  0  0  0  0  0  0  0
   -2.2132   -0.6087    8.7414 C   0  0  0  0  0  0  0  0  0  0  0  0
   -1.8601   -0.5094    7.3309 C   0  0  0  0  0  0  0  0  0  0  0  0
   -0.5320   -0.3242    6.9985 C   0  0  0  0  0  0  0  0  0  0  0  0
    0.4698   -0.0818    7.9111 C   0  0  0  0  0  0  0  0  0  0  0  0
    1.7920    0.2338    7.4004 N   0  0  0  0  0  0  0  0  0  0  0  0
    2.2460   -0.0112    6.1420 N   0  0  0  0  0  0  0  0  0  0  0  0
    3.5033    0.3363    6.1843 C   0  0  0  0  0  0  0  0  0  0  0  0
    3.7718    0.9161    7.4083 C   0  0  0  0  0  0  0  0  0  0  0  0
    2.7091    0.9351    8.1233 N   0  0  0  0  0  0  0  0  0  0  0  0
   -7.2810   -5.6842   12.3689 H   0  0  0  0  0  0  0  0  0  0  0  0
   -6.9453   -5.6827   14.1030 H   0  0  0  0  0  0  0  0  0  0  0  0
   -7.3250   -4.1662   13.2702 H   0  0  0  0  0  0  0  0  0  0  0  0
   -3.7078   -4.3597   11.1979 H   0  0  0  0  0  0  0  0  0  0  0  0
    2.2026   -3.7503   13.4173 H   0  0  0  0  0  0  0  0  0  0  0  0
    1.3113   -2.4007   12.8290 H   0  0  0  0  0  0  0  0  0  0  0  0
    3.8372   -3.4790   11.8966 H   0  0  0  0  0  0  0  0  0  0  0  0
    4.1243   -1.4335   10.8050 H   0  0  0  0  0  0  0  0  0  0  0  0
    3.0908   -0.8599   12.0968 H   0  0  0  0  0  0  0  0  0  0  0  0
    2.8740   -2.4720    8.5735 H   0  0  0  0  0  0  0  0  0  0  0  0
    1.1408   -2.6433    8.6859 H   0  0  0  0  0  0  0  0  0  0  0  0
    3.1146   -4.2729    9.8029 H   0  0  0  0  0  0  0  0  0  0  0  0
    0.3134   -4.2631    9.8720 H   0  0  0  0  0  0  0  0  0  0  0  0
    1.3666   -5.5569   10.3868 H   0  0  0  0  0  0  0  0  0  0  0  0
   -3.2349   -0.7130    9.0760 H   0  0  0  0  0  0  0  0  0  0  0  0
   -2.6276   -0.5847    6.5748 H   0  0  0  0  0  0  0  0  0  0  0  0
   -0.2480   -0.3793    5.9570 H   0  0  0  0  0  0  0  0  0  0  0  0
    4.1858    0.1802    5.3619 H   0  0  0  0  0  0  0  0  0  0  0  0
    4.7187    1.3008    7.7579 H   0  0  0  0  0  0  0  0  0  0  0  0
  1  2  1  0
  1 37  1  6
  1 38  1  0
  1 39  1  0
  2  3  1  0
  3  4  2  0
  3  5  1  0
  5  6  2  0
  5 10  1  0
  6  7  1  0
  6 40  1  0
  7  8  2  0
  8  9  1  0
  8 15  1  0
  9 10  2  0
 10 11  1  0
 11 12  1  6
 11 13  1  0
 11 14  1  0
 15 16  1  0
 15 22  1  0
 16 17  1  0
 16 41  1  1
 16 42  1  0
 17 18  1  0
 17 21  1  0
 17 43  1  1
 18 19  1  0
 18 44  1  6
 18 45  1  0
 19 20  1  0
 19 23  1  0
 20 21  1  0
 20 46  1  6
 20 47  1  0
 21 22  1  0
 21 48  1  6
 22 49  1  6
 22 50  1  0
 23 24  2  0
 23 25  1  0
 25 26  2  0
 25 31  1  0
 26 27  1  0
 26 28  1  0
 28 29  2  0
 28 51  1  0
 29 30  1  0
 29 52  1  0
 30 31  2  0
 30 53  1  0
 31 32  1  0
 32 33  1  0
 32 36  1  0
 33 34  2  0
 34 35  1  0
 34 54  1  0
 35 36  2  0
 35 55  1  0
M  END
