set 2: 22
     RDKit          3D

 54 58  0  0  1  0  0  0  0  0999 V2000
   -3.5666   -1.3083    8.8119 C   0  0  1  0  0  0  0  0  0  0  0  0
   -2.2090   -0.7427    8.5170 C   0  0  0  0  0  0  0  0  0  0  0  0
   -1.9127   -0.2326    7.2541 C   0  0  0  0  0  0  0  0  0  0  0  0
   -0.6435    0.2883    7.0029 C   0  0  0  0  0  0  0  0  0  0  0  0
    0.3000    0.2847    8.0280 C   0  0  0  0  0  0  0  0  0  0  0  0
   -0.0671   -0.2418    9.2657 C   0  0  0  0  0  0  0  0  0  0  0  0
   -1.2994   -0.7522    9.5238 N   0  0  0  0  0  0  0  0  0  0  0  0
    0.9211   -0.2632   10.3940 C   0  0  0  0  0  0  0  0  0  0  0  0
    1.0590    0.6497   11.2167 O   0  0  0  0  0  0  0  0  0  0  0  0
    1.6284   -1.4004   10.3897 N   0  0  0  0  0  0  0  0  0  0  0  0
    2.8031   -1.6303   11.2243 C   0  0  2  0  0  0  0  0  0  0  0  0
    2.9518   -3.1791   11.4366 C   0  0  1  0  0  0  0  0  0  0  0  0
    2.0812   -3.6152   12.5865 C   0  0  2  0  0  0  0  0  0  0  0  0
    0.9338   -4.4159   12.0297 N   0  0  0  0  0  0  0  0  0  0  0  0
    1.3723   -4.8360   10.7195 C   0  0  2  0  0  0  0  0  0  0  0  0
    2.2070   -3.7056   10.2003 C   0  0  1  0  0  0  0  0  0  0  0  0
    1.3932   -2.5804    9.5475 C   0  0  2  0  0  0  0  0  0  0  0  0
   -0.4152   -4.1713   12.4007 C   0  0  0  0  0  0  0  0  0  0  0  0
   -1.3444   -4.5719   11.4791 N   0  0  0  0  0  0  0  0  0  0  0  0
   -2.6363   -4.2863   11.8484 C   0  0  0  0  0  0  0  0  0  0  0  0
   -3.6560   -4.4082   10.6496 C   0  0  1  0  0  0  0  0  0  0  0  0
   -2.9728   -3.7973   13.0393 C   0  0  0  0  0  0  0  0  0  0  0  0
   -1.9726   -3.5731   14.0042 C   0  0  0  0  0  0  0  0  0  0  0  0
   -2.3756   -3.1637   15.3673 C   0  0  1  0  0  0  0  0  0  0  0  0
   -0.6465   -3.7186   13.7066 N   0  0  0  0  0  0  0  0  0  0  0  0
    1.6417    0.8190    7.8133 N   0  0  0  0  0  0  0  0  0  0  0  0
    2.5728    0.8295    8.7813 N   0  0  0  0  0  0  0  0  0  0  0  0
    3.6026    1.3787    8.1851 C   0  0  0  0  0  0  0  0  0  0  0  0
    3.2685    1.6881    6.8672 C   0  0  0  0  0  0  0  0  0  0  0  0
    2.0285    1.3334    6.6343 N   0  0  0  0  0  0  0  0  0  0  0  0
   -4.1910   -1.2375    7.9213 H   0  0  0  0  0  0  0  0  0  0  0  0
   -3.4688   -2.3537    9.1049 H   0  0  0  0  0  0  0  0  0  0  0  0
   -4.0264   -0.7449    9.6238 H   0  0  0  0  0  0  0  0  0  0  0  0
   -2.6630   -0.2414    6.4753 H   0  0  0  0  0  0  0  0  0  0  0  0
   -0.3960    0.6883    6.0290 H   0  0  0  0  0  0  0  0  0  0  0  0
    2.7537   -1.0900   12.1718 H   0  0  0  0  0  0  0  0  0  0  0  0
    3.6721   -1.2439   10.6907 H   0  0  0  0  0  0  0  0  0  0  0  0
    3.9827   -3.5229   11.5301 H   0  0  0  0  0  0  0  0  0  0  0  0
    1.7057   -2.7712   13.1672 H   0  0  0  0  0  0  0  0  0  0  0  0
    2.6411   -4.2457   13.2774 H   0  0  0  0  0  0  0  0  0  0  0  0
    0.5594   -5.0886   10.0381 H   0  0  0  0  0  0  0  0  0  0  0  0
    1.9756   -5.7366   10.8380 H   0  0  0  0  0  0  0  0  0  0  0  0
    2.9180   -4.0863    9.4657 H   0  0  0  0  0  0  0  0  0  0  0  0
    1.7313   -2.3841    8.5294 H   0  0  0  0  0  0  0  0  0  0  0  0
    0.3273   -2.8141    9.5110 H   0  0  0  0  0  0  0  0  0  0  0  0
   -3.4391   -5.2962   10.0556 H   0  0  0  0  0  0  0  0  0  0  0  0
   -4.6794   -4.4838   11.0159 H   0  0  0  0  0  0  0  0  0  0  0  0
   -3.5808   -3.5339   10.0035 H   0  0  0  0  0  0  0  0  0  0  0  0
   -4.0087   -3.5986   13.2726 H   0  0  0  0  0  0  0  0  0  0  0  0
   -3.0517   -3.8996   15.8018 H   0  0  0  0  0  0  0  0  0  0  0  0
   -1.5053   -3.0753   16.0184 H   0  0  0  0  0  0  0  0  0  0  0  0
   -2.8791   -2.1976   15.3396 H   0  0  0  0  0  0  0  0  0  0  0  0
    4.5542    1.5508    8.6742 H   0  0  0  0  0  0  0  0  0  0  0  0
    3.9076    2.1495    6.1235 H   0  0  0  0  0  0  0  0  0  0  0  0
  1  2  1  0
  1 31  1  6
  1 32  1  0
  1 33  1  0
  2  3  2  0
  2  7  1  0
  3  4  1  0
  3 34  1  0
  4  5  2  0
  4 35  1  0
  5  6  1  0
  5 26  1  0
  6  7  2  0
  6  8  1  0
  8  9  2  0
  8 10  1  0
 10 11  1  0
 10 17  1  0
 11 12  1  0
 11 36  1  1
 11 37  1  0
 12 13  1  0
 12 16  1  0
 12 38  1  1
 13 14  1  0
 13 39  1  1
 13 40  1  0
 14 15  1  0
 14 18  1  0
 15 16  1  0
 15 41  1  6
 15 42  1  0
 16 17  1  0
 16 43  1  6
 17 44  1  6
 17 45  1  0
 18 19  2  0
 18 25  1  0
 19 20  1  0
 20 21  1  0
 20 22  2  0
 21 46  1  6
 21 47  1  0
 21 48  1  0
 22 23  1  0
 22 49  1  0
 23 24  1  0
 23 25  2  0
 24 50  1  1
 24 51  1  0
 24 52  1  0
 26 27  1  0
 26 30  1  0
 27 28  2  0
 28 29  1  0
 28 53  1  0
 29 30  2  0
 29 54  1  0
M  END
