set 2: 5 adjust
     RDKit          3D

 56 60  0  0  1  0  0  0  0  0999 V2000
   -3.2740   -0.5693    5.4435 C   0  0  1  0  0  0  0  0  0  0  0  0
   -3.0813    0.2469    6.5935 O   0  0  0  0  0  0  0  0  0  0  0  0
   -2.0116   -0.0091    7.4296 C   0  0  0  0  0  0  0  0  0  0  0  0
   -2.3079   -0.4353    8.6899 C   0  0  0  0  0  0  0  0  0  0  0  0
   -1.2834   -0.6919    9.5792 C   0  0  0  0  0  0  0  0  0  0  0  0
    0.0297   -0.3410    9.2547 C   0  0  0  0  0  0  0  0  0  0  0  0
    1.1302   -0.4044   10.3271 C   0  0  0  0  0  0  0  0  0  0  0  0
    1.1932    0.5615   11.0967 O   0  0  0  0  0  0  0  0  0  0  0  0
    1.8348   -1.5353   10.4619 N   0  0  0  0  0  0  0  0  0  0  0  0
    1.6766   -2.7695    9.6818 C   0  0  2  0  0  0  0  0  0  0  0  0
    2.4276   -3.8446   10.4785 C   0  0  2  0  0  0  0  0  0  0  0  0
    1.5492   -4.9431   10.9937 C   0  0  2  0  0  0  0  0  0  0  0  0
    0.9938   -4.4401   12.2283 N   0  0  0  0  0  0  0  0  0  0  0  0
    2.0863   -3.5979   12.8323 C   0  0  2  0  0  0  0  0  0  0  0  0
    3.0576   -3.2335   11.7395 C   0  0  2  0  0  0  0  0  0  0  0  0
    2.9290   -1.7029   11.4127 C   0  0  2  0  0  0  0  0  0  0  0  0
   -0.3832   -4.1795   12.4588 C   0  0  0  0  0  0  0  0  0  0  0  0
   -0.7317   -3.6430   13.7057 N   0  0  0  0  0  0  0  0  0  0  0  0
   -2.0793   -3.4860   13.8719 C   0  0  0  0  0  0  0  0  0  0  0  0
   -2.6040   -2.9900   15.1628 C   0  0  1  0  0  0  0  0  0  0  0  0
   -2.9880   -3.7789   12.8374 C   0  0  0  0  0  0  0  0  0  0  0  0
   -2.5452   -4.3434   11.7168 C   0  0  0  0  0  0  0  0  0  0  0  0
   -3.4521   -4.5498   10.4414 C   0  0  1  0  0  0  0  0  0  0  0  0
   -1.2252   -4.6452   11.4854 N   0  0  0  0  0  0  0  0  0  0  0  0
    0.3672   -0.0475    7.8889 C   0  0  0  0  0  0  0  0  0  0  0  0
   -0.7058    0.1684    6.9928 C   0  0  0  0  0  0  0  0  0  0  0  0
    1.7010    0.1459    7.3596 N   0  0  0  0  0  0  0  0  0  0  0  0
    2.8263    0.4352    8.0847 N   0  0  0  0  0  0  0  0  0  0  0  0
    3.7575    0.7383    7.2066 C   0  0  0  0  0  0  0  0  0  0  0  0
    3.1153    0.6085    5.9243 C   0  0  0  0  0  0  0  0  0  0  0  0
    1.8469    0.2624    6.0346 N   0  0  0  0  0  0  0  0  0  0  0  0
   -4.1598   -0.2304    4.9067 H   0  0  0  0  0  0  0  0  0  0  0  0
   -2.4275   -0.5022    4.7585 H   0  0  0  0  0  0  0  0  0  0  0  0
   -3.4328   -1.6137    5.7163 H   0  0  0  0  0  0  0  0  0  0  0  0
   -3.3390   -0.5728    8.9812 H   0  0  0  0  0  0  0  0  0  0  0  0
   -1.5192   -1.1771   10.5162 H   0  0  0  0  0  0  0  0  0  0  0  0
    2.0475   -2.7394    8.6591 H   0  0  0  0  0  0  0  0  0  0  0  0
    0.6102   -3.0006    9.6974 H   0  0  0  0  0  0  0  0  0  0  0  0
    3.2467   -4.2507    9.8817 H   0  0  0  0  0  0  0  0  0  0  0  0
    2.1262   -5.8518   11.1703 H   0  0  0  0  0  0  0  0  0  0  0  0
    0.7685   -5.1712   10.2665 H   0  0  0  0  0  0  0  0  0  0  0  0
    2.6103   -4.1629   13.6042 H   0  0  0  0  0  0  0  0  0  0  0  0
    1.6511   -2.7095   13.2928 H   0  0  0  0  0  0  0  0  0  0  0  0
    4.0488   -3.6494   11.9283 H   0  0  0  0  0  0  0  0  0  0  0  0
    2.8067   -1.1436   12.3412 H   0  0  0  0  0  0  0  0  0  0  0  0
    3.8655   -1.3985   10.9428 H   0  0  0  0  0  0  0  0  0  0  0  0
   -3.6920   -2.9138   15.1519 H   0  0  0  0  0  0  0  0  0  0  0  0
   -2.3217   -3.6633   15.9729 H   0  0  0  0  0  0  0  0  0  0  0  0
   -2.1994   -2.0015   15.3833 H   0  0  0  0  0  0  0  0  0  0  0  0
   -4.0413   -3.5559   12.9281 H   0  0  0  0  0  0  0  0  0  0  0  0
   -4.4963   -4.3154   10.6504 H   0  0  0  0  0  0  0  0  0  0  0  0
   -3.1155   -3.9045    9.6296 H   0  0  0  0  0  0  0  0  0  0  0  0
   -3.4040   -5.5843   10.0991 H   0  0  0  0  0  0  0  0  0  0  0  0
   -0.5120    0.4820    5.9777 H   0  0  0  0  0  0  0  0  0  0  0  0
    4.7642    1.0116    7.4872 H   0  0  0  0  0  0  0  0  0  0  0  0
    3.5582    0.7579    4.9505 H   0  0  0  0  0  0  0  0  0  0  0  0
  1  2  1  0
  1 32  1  6
  1 33  1  0
  1 34  1  0
  2  3  1  0
  3  4  2  0
  3 26  1  0
  4  5  1  0
  4 35  1  0
  5  6  2  0
  5 36  1  0
  6  7  1  0
  6 25  1  0
  7  8  2  0
  7  9  1  0
  9 10  1  0
  9 16  1  0
 10 11  1  0
 10 37  1  6
 10 38  1  0
 11 12  1  0
 11 15  1  0
 11 39  1  6
 12 13  1  0
 12 40  1  1
 12 41  1  0
 13 14  1  0
 13 17  1  0
 14 15  1  0
 14 42  1  1
 14 43  1  0
 15 16  1  0
 15 44  1  1
 16 45  1  1
 16 46  1  0
 17 18  2  0
 17 24  1  0
 18 19  1  0
 19 20  1  0
 19 21  2  0
 20 47  1  6
 20 48  1  0
 20 49  1  0
 21 22  1  0
 21 50  1  0
 22 23  1  0
 22 24  2  0
 23 51  1  1
 23 52  1  0
 23 53  1  0
 25 26  2  0
 25 27  1  0
 26 54  1  0
 27 28  1  0
 27 31  1  0
 28 29  2  0
 29 30  1  0
 29 55  1  0
 30 31  2  0
 30 56  1  0
M  END
