4
     RDKit          3D

 17 18  0  0  1  0  0  0  0  0999 V2000
   25.9827   21.0685    7.0835 Cl  0  0  0  0  0  0  0  0  0  0  0  0
   26.7934   20.1983    8.3316 C   0  0  0  0  0  0  0  0  0  0  0  0
   26.9388   18.8122    8.2365 C   0  0  0  0  0  0  0  0  0  0  0  0
   27.5595   18.0924    9.2071 C   0  0  0  0  0  0  0  0  0  0  0  0
   28.0424   18.7797   10.2764 C   0  0  0  0  0  0  0  0  0  0  0  0
   27.9127   20.1711   10.3829 C   0  0  0  0  0  0  0  0  0  0  0  0
   27.2811   20.8776    9.4013 N   0  0  0  0  0  0  0  0  0  0  0  0
   28.4424   20.9468   11.5561 C   0  0  0  0  0  0  0  0  0  0  0  0
   28.4293   22.2686   11.6014 N   0  0  0  0  0  0  0  0  0  0  0  0
   28.9666   22.5117   12.7937 N   0  0  0  0  0  0  0  0  0  0  0  0
   29.2854   21.3384   13.4033 C   0  0  0  0  0  0  0  0  0  0  0  0
   28.9587   20.3412   12.6235 N   0  0  0  0  0  0  0  0  0  0  0  0
   26.5691   18.2663    7.3824 H   0  0  0  0  0  0  0  0  0  0  0  0
   28.5385   18.2034   11.0424 H   0  0  0  0  0  0  0  0  0  0  0  0
   29.0574   23.4414   13.1933 H   0  0  0  0  0  0  0  0  0  0  0  0
   29.7128   21.3188   14.3954 H   0  0  0  0  0  0  0  0  0  0  0  0
   27.6521   17.0208    9.1090 H   0  0  0  0  0  0  0  0  0  0  0  0
  1  2  1  0
  2  3  1  0
  2  7  2  0
  3  4  2  0
  3 13  1  0
  4  5  1  0
  4 17  1  0
  5  6  2  0
  5 14  1  0
  6  7  1  0
  6  8  1  0
  8  9  2  0
  8 12  1  0
  9 10  1  0
 10 11  1  0
 10 15  1  0
 11 12  2  0
 11 16  1  0
M  END
