8
     RDKit          3D

 27 29  0  0  1  0  0  0  0  0999 V2000
   26.7934   20.1983    8.3316 C   0  0  0  0  0  0  0  0  0  0  0  0
   26.9388   18.8122    8.2365 C   0  0  0  0  0  0  0  0  0  0  0  0
   27.5595   18.0924    9.2071 C   0  0  0  0  0  0  0  0  0  0  0  0
   28.0424   18.7797   10.2764 C   0  0  0  0  0  0  0  0  0  0  0  0
   27.9127   20.1711   10.3829 C   0  0  0  0  0  0  0  0  0  0  0  0
   27.2811   20.8776    9.4013 N   0  0  0  0  0  0  0  0  0  0  0  0
   28.4424   20.9468   11.5561 C   0  0  0  0  0  0  0  0  0  0  0  0
   28.4293   22.2686   11.6014 N   0  0  0  0  0  0  0  0  0  0  0  0
   28.9666   22.5117   12.7937 N   0  0  0  0  0  0  0  0  0  0  0  0
   29.2854   21.3384   13.4033 C   0  0  0  0  0  0  0  0  0  0  0  0
   28.9587   20.3412   12.6235 N   0  0  0  0  0  0  0  0  0  0  0  0
   26.5691   18.2663    7.3824 H   0  0  0  0  0  0  0  0  0  0  0  0
   28.5385   18.2034   11.0424 H   0  0  0  0  0  0  0  0  0  0  0  0
   29.0574   23.4414   13.1933 H   0  0  0  0  0  0  0  0  0  0  0  0
   29.7128   21.3188   14.3954 H   0  0  0  0  0  0  0  0  0  0  0  0
   27.6521   17.0208    9.1090 H   0  0  0  0  0  0  0  0  0  0  0  0
   26.0623   22.0560    7.4842 H   0  0  0  0  0  0  0  0  0  0  0  0
   26.0845   20.9731    7.2438 C   0  0  1  0  0  0  0  0  0  0  0  0
   26.5908   20.6220    5.8402 C   0  0  1  0  0  0  0  0  0  0  0  0
   25.4474   19.6069    5.7313 C   0  0  1  0  0  0  0  0  0  0  0  0
   24.7339   20.3574    6.8615 C   0  0  2  0  0  0  0  0  0  0  0  0
   26.4773   21.4703    5.1222 H   0  0  0  0  0  0  0  0  0  0  0  0
   27.6146   20.1786    5.8095 H   0  0  0  0  0  0  0  0  0  0  0  0
   24.9092   19.6122    4.7536 H   0  0  0  0  0  0  0  0  0  0  0  0
   25.7609   18.5784    6.0345 H   0  0  0  0  0  0  0  0  0  0  0  0
   24.0120   21.1188    6.4777 H   0  0  0  0  0  0  0  0  0  0  0  0
   24.2799   19.7032    7.6436 H   0  0  0  0  0  0  0  0  0  0  0  0
  1  2  1  0
  1  6  2  0
  1 18  1  0
  2  3  2  0
  2 12  1  0
  3  4  1  0
  3 16  1  0
  4  5  2  0
  4 13  1  0
  5  6  1  0
  5  7  1  0
  7  8  2  0
  7 11  1  0
  8  9  1  0
  9 10  1  0
  9 14  1  0
 10 11  2  0
 10 15  1  0
 18 17  1  1
 18 19  1  0
 18 21  1  0
 19 20  1  0
 19 22  1  6
 19 23  1  0
 20 21  1  0
 20 24  1  6
 20 25  1  0
 21 26  1  6
 21 27  1  0
M  END
