29
     RDKit          3D

 53 56  0  0  1  0  0  0  0  0999 V2000
   17.3314  -10.8508   19.8160 O   0  0  0  0  0  0  0  0  0  0  0  0
   15.8732   -5.5568   17.1485 N   0  0  0  0  0  0  0  0  0  0  0  0
   17.0485  -12.8702   17.9428 O   0  0  0  0  0  0  0  0  0  0  0  0
   16.6789  -10.5758   18.6331 C   0  0  0  0  0  0  0  0  0  0  0  0
   15.4270   -7.1010   15.6955 N   0  0  0  0  0  0  0  0  0  0  0  0
   14.9243   -6.5661   19.1164 O   0  0  0  0  0  0  0  0  0  0  0  0
   16.1306   -9.3180   18.3377 C   0  0  0  0  0  0  0  0  0  0  0  0
   16.5169   -5.1949   14.8955 N   0  0  0  0  0  0  0  0  0  0  0  0
   15.4483   -9.0841   17.1286 C   0  0  0  0  0  0  0  0  0  0  0  0
   10.3535   -3.6328   13.8685 N   0  0  0  0  0  0  0  0  0  0  0  0
   15.3540  -10.1424   16.2079 C   0  0  0  0  0  0  0  0  0  0  0  0
   15.8930  -11.3910   16.4942 C   0  0  0  0  0  0  0  0  0  0  0  0
   16.5304  -11.6172   17.7086 C   0  0  0  0  0  0  0  0  0  0  0  0
   17.7094  -13.4613   16.8286 C   0  0  2  0  0  0  0  0  0  0  0  0
   14.7985   -7.6857   16.8778 C   0  0  1  0  0  0  0  0  0  0  0  0
   15.1735   -6.5949   17.9092 C   0  0  0  0  0  0  0  0  0  0  0  0
   15.9658   -5.9047   15.8690 C   0  0  0  0  0  0  0  0  0  0  0  0
   16.3284   -4.2833   17.7175 C   0  0  2  0  0  0  0  0  0  0  0  0
   13.2489   -7.6894   16.7626 C   0  0  0  0  0  0  0  0  0  0  0  0
   12.4750   -8.7294   17.2957 C   0  0  0  0  0  0  0  0  0  0  0  0
   11.0830   -8.6888   17.2654 C   0  0  0  0  0  0  0  0  0  0  0  0
   10.4348   -7.5947   16.7026 C   0  0  0  0  0  0  0  0  0  0  0  0
   11.1690   -6.5337   16.1633 C   0  0  0  0  0  0  0  0  0  0  0  0
   12.5680   -6.6016   16.1875 C   0  0  0  0  0  0  0  0  0  0  0  0
   10.4790   -5.3361   15.5988 C   0  0  0  0  0  0  0  0  0  0  0  0
    9.3814   -4.7519   16.2443 C   0  0  0  0  0  0  0  0  0  0  0  0
    8.7827   -3.6124   15.7086 C   0  0  0  0  0  0  0  0  0  0  0  0
    9.2999   -3.0934   14.5255 C   0  0  0  0  0  0  0  0  0  0  0  0
   10.9233   -4.7348   14.4161 C   0  0  0  0  0  0  0  0  0  0  0  0
   16.2129   -8.5194   19.0612 H   0  0  0  0  0  0  0  0  0  0  0  0
   16.4310   -5.5082   13.9223 H   0  0  0  0  0  0  0  0  0  0  0  0
   16.8486   -4.2278   15.0300 H   0  0  0  0  0  0  0  0  0  0  0  0
   14.8524  -10.0295   15.2595 H   0  0  0  0  0  0  0  0  0  0  0  0
   15.8030  -12.1934   15.7769 H   0  0  0  0  0  0  0  0  0  0  0  0
   18.5417  -12.8437   16.4849 H   0  0  0  0  0  0  0  0  0  0  0  0
   17.0371  -13.6384   15.9878 H   0  0  0  0  0  0  0  0  0  0  0  0
   18.1162  -14.4268   17.1252 H   0  0  0  0  0  0  0  0  0  0  0  0
   17.2709   -4.0073   17.2427 H   0  0  0  0  0  0  0  0  0  0  0  0
   16.4671   -4.3902   18.7933 H   0  0  0  0  0  0  0  0  0  0  0  0
   15.5774   -3.5225   17.4978 H   0  0  0  0  0  0  0  0  0  0  0  0
   12.9485   -9.5770   17.7678 H   0  0  0  0  0  0  0  0  0  0  0  0
   10.5033   -9.4966   17.6889 H   0  0  0  0  0  0  0  0  0  0  0  0
    9.3545   -7.5729   16.6955 H   0  0  0  0  0  0  0  0  0  0  0  0
   13.1344   -5.7696   15.7916 H   0  0  0  0  0  0  0  0  0  0  0  0
    9.0059   -5.1657   17.1687 H   0  0  0  0  0  0  0  0  0  0  0  0
    7.9431   -3.1413   16.1983 H   0  0  0  0  0  0  0  0  0  0  0  0
    8.8646   -2.2068   14.0873 H   0  0  0  0  0  0  0  0  0  0  0  0
   11.7852   -5.1228   13.8944 H   0  0  0  0  0  0  0  0  0  0  0  0
   18.3139   -9.9234   20.2557 C   0  0  2  0  0  0  0  0  0  0  0  0
   18.9769  -10.4263   20.9589 H   0  0  0  0  0  0  0  0  0  0  0  0
   17.8697   -9.0833   20.7828 H   0  0  0  0  0  0  0  0  0  0  0  0
   18.9298   -9.5490   19.4374 H   0  0  0  0  0  0  0  0  0  0  0  0
   15.4099   -7.5492   14.7764 H   0  0  0  0  0  0  0  0  0  0  0  0
  1  4  1  0
  1 49  1  0
  2 16  1  0
  2 17  1  0
  2 18  1  0
  3 13  1  0
  3 14  1  0
  4  7  1  0
  4 13  2  0
  5 15  1  0
  5 17  2  0
  5 53  1  0
  6 16  2  0
  7  9  2  0
  7 30  1  0
  8 17  1  0
  8 31  1  0
  8 32  1  0
  9 11  1  0
 15  9  1  1
 10 28  1  0
 10 29  2  0
 11 12  2  0
 11 33  1  0
 12 13  1  0
 12 34  1  0
 14 35  1  6
 14 36  1  0
 14 37  1  0
 15 16  1  0
 15 19  1  0
 18 38  1  6
 18 39  1  0
 18 40  1  0
 19 20  1  0
 19 24  2  0
 20 21  2  0
 20 41  1  0
 21 22  1  0
 21 42  1  0
 22 23  2  0
 22 43  1  0
 23 24  1  0
 23 25  1  0
 24 44  1  0
 25 26  2  0
 25 29  1  0
 26 27  1  0
 26 45  1  0
 27 28  2  0
 27 46  1  0
 28 47  1  0
 29 48  1  0
 49 50  1  1
 49 51  1  0
 49 52  1  0
M  CHG  1   5   1
M  END
