35
     RDKit          3D

 62 66  0  0  1  0  0  0  0  0999 V2000
   15.9210   -5.7072   17.1404 N   0  0  0  0  0  0  0  0  0  0  0  0
   17.0772  -12.7215   17.3946 O   0  0  0  0  0  0  0  0  0  0  0  0
   16.5317  -10.5407   18.2875 C   0  0  0  0  0  0  0  0  0  0  0  0
   15.0878   -6.8726   15.5221 N   0  0  0  0  0  0  0  0  0  0  0  0
   15.0338   -6.9276   19.0189 O   0  0  0  0  0  0  0  0  0  0  0  0
   15.9043   -9.2970   18.1206 C   0  0  0  0  0  0  0  0  0  0  0  0
   16.5234   -5.1949   14.8955 N   0  0  0  0  0  0  0  0  0  0  0  0
   15.3133   -8.9369   16.9010 C   0  0  0  0  0  0  0  0  0  0  0  0
    9.9371   -3.3641   14.0955 N   0  0  0  0  0  0  0  0  0  0  0  0
   15.4025   -9.8369   15.8388 C   0  0  0  0  0  0  0  0  0  0  0  0
   15.9791  -11.0807   15.9985 C   0  0  0  0  0  0  0  0  0  0  0  0
   16.5287  -11.4628   17.2234 C   0  0  0  0  0  0  0  0  0  0  0  0
   17.1913  -13.5589   16.2384 C   0  0  2  0  0  0  0  0  0  0  0  0
   14.5487   -7.6073   16.6572 C   0  0  1  0  0  0  0  0  0  0  0  0
   15.1570   -6.7698   17.8027 C   0  0  0  0  0  0  0  0  0  0  0  0
   15.8826   -5.8746   15.8227 C   0  0  0  0  0  0  0  0  0  0  0  0
   16.6809   -4.6673   17.8413 C   0  0  2  0  0  0  0  0  0  0  0  0
   13.0015   -7.5082   16.7094 C   0  0  0  0  0  0  0  0  0  0  0  0
   12.2252   -8.5509   17.2344 C   0  0  0  0  0  0  0  0  0  0  0  0
   10.8368   -8.4655   17.2955 C   0  0  0  0  0  0  0  0  0  0  0  0
   10.1951   -7.3198   16.8396 C   0  0  0  0  0  0  0  0  0  0  0  0
   10.9347   -6.2577   16.3118 C   0  0  0  0  0  0  0  0  0  0  0  0
   12.3289   -6.3636   16.2494 C   0  0  0  0  0  0  0  0  0  0  0  0
   10.2511   -5.0255   15.8338 C   0  0  0  0  0  0  0  0  0  0  0  0
    9.3232   -4.3555   16.6399 C   0  0  0  0  0  0  0  0  0  0  0  0
    8.7097   -3.1942   16.1738 C   0  0  0  0  0  0  0  0  0  0  0  0
    9.0472   -2.7379   14.9024 C   0  0  0  0  0  0  0  0  0  0  0  0
   10.5234   -4.4893   14.5700 C   0  0  0  0  0  0  0  0  0  0  0  0
   15.8805   -8.6157   18.9563 H   0  0  0  0  0  0  0  0  0  0  0  0
   16.4633   -5.4905   13.9152 H   0  0  0  0  0  0  0  0  0  0  0  0
   16.8827   -4.2416   15.0561 H   0  0  0  0  0  0  0  0  0  0  0  0
   15.0139   -9.5748   14.8675 H   0  0  0  0  0  0  0  0  0  0  0  0
   15.9847  -11.7379   15.1448 H   0  0  0  0  0  0  0  0  0  0  0  0
   17.5445  -14.5450   16.5108 H   0  0  0  0  0  0  0  0  0  0  0  0
   17.9141  -13.1782   15.5164 H   0  0  0  0  0  0  0  0  0  0  0  0
   16.2274  -13.6871   15.7427 H   0  0  0  0  0  0  0  0  0  0  0  0
   17.7322   -4.9560   17.8504 H   0  0  0  0  0  0  0  0  0  0  0  0
   16.3057   -4.5569   18.8586 H   0  0  0  0  0  0  0  0  0  0  0  0
   16.5599   -3.7303   17.2933 H   0  0  0  0  0  0  0  0  0  0  0  0
   12.6971   -9.4470   17.6089 H   0  0  0  0  0  0  0  0  0  0  0  0
   10.2573   -9.2832   17.7006 H   0  0  0  0  0  0  0  0  0  0  0  0
    9.1176   -7.2623   16.8949 H   0  0  0  0  0  0  0  0  0  0  0  0
   12.8932   -5.5309   15.8520 H   0  0  0  0  0  0  0  0  0  0  0  0
    9.0854   -4.7273   17.6263 H   0  0  0  0  0  0  0  0  0  0  0  0
    7.9947   -2.6582   16.7805 H   0  0  0  0  0  0  0  0  0  0  0  0
    8.5980   -1.8355   14.5115 H   0  0  0  0  0  0  0  0  0  0  0  0
   11.2391   -4.9611   13.9133 H   0  0  0  0  0  0  0  0  0  0  0  0
   17.2266  -10.8502   19.6215 C   0  0  1  0  0  0  0  0  0  0  0  0
   18.4813   -9.9901   19.8791 C   0  0  2  0  0  0  0  0  0  0  0  0
   18.0760   -8.9711   20.9437 C   0  0  1  0  0  0  0  0  0  0  0  0
   17.1010   -9.7391   21.8320 C   0  0  2  0  0  0  0  0  0  0  0  0
   16.3422  -10.6773   20.8827 C   0  0  2  0  0  0  0  0  0  0  0  0
   17.5617  -11.8845   19.5888 H   0  0  0  0  0  0  0  0  0  0  0  0
   18.8693   -9.5109   18.9784 H   0  0  0  0  0  0  0  0  0  0  0  0
   19.2832  -10.6186   20.2716 H   0  0  0  0  0  0  0  0  0  0  0  0
   18.9297   -8.5782   21.4972 H   0  0  0  0  0  0  0  0  0  0  0  0
   17.5720   -8.1220   20.4795 H   0  0  0  0  0  0  0  0  0  0  0  0
   16.4338   -9.0732   22.3787 H   0  0  0  0  0  0  0  0  0  0  0  0
   17.6579  -10.3193   22.5690 H   0  0  0  0  0  0  0  0  0  0  0  0
   16.1354  -11.6306   21.3707 H   0  0  0  0  0  0  0  0  0  0  0  0
   15.3723  -10.2425   20.6369 H   0  0  0  0  0  0  0  0  0  0  0  0
   15.0813   -7.2628   14.5810 H   0  0  0  0  0  0  0  0  0  0  0  0
  1 15  1  0
  1 16  1  0
  1 17  1  0
  2 12  1  0
  2 13  1  0
  3  6  1  0
  3 12  2  0
  3 48  1  0
  4 14  1  0
  4 16  2  0
  4 62  1  0
  5 15  2  0
  6  8  2  0
  6 29  1  0
  7 16  1  0
  7 30  1  0
  7 31  1  0
  8 10  1  0
 14  8  1  1
  9 27  1  0
  9 28  2  0
 10 11  2  0
 10 32  1  0
 11 12  1  0
 11 33  1  0
 13 34  1  1
 13 35  1  0
 13 36  1  0
 14 15  1  0
 14 18  1  0
 17 37  1  1
 17 38  1  0
 17 39  1  0
 18 19  1  0
 18 23  2  0
 19 20  2  0
 19 40  1  0
 20 21  1  0
 20 41  1  0
 21 22  2  0
 21 42  1  0
 22 23  1  0
 22 24  1  0
 23 43  1  0
 24 25  2  0
 24 28  1  0
 25 26  1  0
 25 44  1  0
 26 27  2  0
 26 45  1  0
 27 46  1  0
 28 47  1  0
 48 49  1  0
 48 52  1  0
 48 53  1  6
 49 50  1  0
 49 54  1  6
 49 55  1  0
 50 51  1  0
 50 56  1  1
 50 57  1  0
 51 52  1  0
 51 58  1  1
 51 59  1  0
 52 60  1  1
 52 61  1  0
M  CHG  1   4   1
M  END
