31
     RDKit          3D

 59 62  0  0  1  0  0  0  0  0999 V2000
   17.5723  -11.0565   19.3629 O   0  0  0  0  0  0  0  0  0  0  0  0
   15.9083   -5.5551   17.1639 N   0  0  0  0  0  0  0  0  0  0  0  0
   17.3083  -12.7982   17.1915 O   0  0  0  0  0  0  0  0  0  0  0  0
   16.8480  -10.6533   18.2541 C   0  0  0  0  0  0  0  0  0  0  0  0
   15.3670   -7.0493   15.6952 N   0  0  0  0  0  0  0  0  0  0  0  0
   15.0358   -6.6148   19.1474 O   0  0  0  0  0  0  0  0  0  0  0  0
   16.1830   -9.4203   18.1722 C   0  0  0  0  0  0  0  0  0  0  0  0
   16.5223   -5.1949   14.8955 N   0  0  0  0  0  0  0  0  0  0  0  0
   15.4585   -9.0463   17.0262 C   0  0  0  0  0  0  0  0  0  0  0  0
   10.2631   -3.6861   13.8389 N   0  0  0  0  0  0  0  0  0  0  0  0
   15.4367   -9.9341   15.9426 C   0  0  0  0  0  0  0  0  0  0  0  0
   16.0519  -11.1771   16.0230 C   0  0  0  0  0  0  0  0  0  0  0  0
   16.7552  -11.5381   17.1688 C   0  0  0  0  0  0  0  0  0  0  0  0
   18.4116  -13.0217   16.3212 C   0  0  2  0  0  0  0  0  0  0  0  0
   14.7835   -7.6495   16.8831 C   0  0  1  0  0  0  0  0  0  0  0  0
   15.2221   -6.6021   17.9292 C   0  0  0  0  0  0  0  0  0  0  0  0
   15.9601   -5.8843   15.8761 C   0  0  0  0  0  0  0  0  0  0  0  0
   16.4191   -4.3059   17.7391 C   0  0  2  0  0  0  0  0  0  0  0  0
   13.2275   -7.6293   16.8296 C   0  0  0  0  0  0  0  0  0  0  0  0
   12.4563   -8.6365   17.4272 C   0  0  0  0  0  0  0  0  0  0  0  0
   11.0646   -8.6039   17.3999 C   0  0  0  0  0  0  0  0  0  0  0  0
   10.4114   -7.5323   16.8039 C   0  0  0  0  0  0  0  0  0  0  0  0
   11.1411   -6.4892   16.2262 C   0  0  0  0  0  0  0  0  0  0  0  0
   12.5403   -6.5579   16.2315 C   0  0  0  0  0  0  0  0  0  0  0  0
   10.4413   -5.3127   15.6340 C   0  0  0  0  0  0  0  0  0  0  0  0
    9.3592   -4.7052   16.2840 C   0  0  0  0  0  0  0  0  0  0  0  0
    8.7385   -3.5943   15.7154 C   0  0  0  0  0  0  0  0  0  0  0  0
    9.2213   -3.1257   14.4975 C   0  0  0  0  0  0  0  0  0  0  0  0
   10.8557   -4.7600   14.4181 C   0  0  0  0  0  0  0  0  0  0  0  0
   16.2424   -8.7388   19.0040 H   0  0  0  0  0  0  0  0  0  0  0  0
   16.4295   -5.5147   13.9249 H   0  0  0  0  0  0  0  0  0  0  0  0
   16.8587   -4.2278   15.0201 H   0  0  0  0  0  0  0  0  0  0  0  0
   14.9258   -9.6665   15.0296 H   0  0  0  0  0  0  0  0  0  0  0  0
   15.9931  -11.8614   15.1889 H   0  0  0  0  0  0  0  0  0  0  0  0
   18.5698  -14.0952   16.2186 H   0  0  0  0  0  0  0  0  0  0  0  0
   19.3341  -12.6006   16.7184 H   0  0  0  0  0  0  0  0  0  0  0  0
   18.2385  -12.6193   15.3223 H   0  0  0  0  0  0  0  0  0  0  0  0
   17.4020   -4.1044   17.3119 H   0  0  0  0  0  0  0  0  0  0  0  0
   16.4911   -4.3966   18.8223 H   0  0  0  0  0  0  0  0  0  0  0  0
   15.7349   -3.5013   17.4645 H   0  0  0  0  0  0  0  0  0  0  0  0
   12.9336   -9.4590   17.9379 H   0  0  0  0  0  0  0  0  0  0  0  0
   10.4902   -9.3954   17.8599 H   0  0  0  0  0  0  0  0  0  0  0  0
    9.3313   -7.5112   16.8055 H   0  0  0  0  0  0  0  0  0  0  0  0
   13.1007   -5.7421   15.7953 H   0  0  0  0  0  0  0  0  0  0  0  0
    9.0157   -5.0815   17.2364 H   0  0  0  0  0  0  0  0  0  0  0  0
    7.9091   -3.1065   16.2060 H   0  0  0  0  0  0  0  0  0  0  0  0
    8.7684   -2.2628   14.0308 H   0  0  0  0  0  0  0  0  0  0  0  0
   11.7028   -5.1690   13.8904 H   0  0  0  0  0  0  0  0  0  0  0  0
   18.0307  -10.1007   20.3232 C   0  0  2  0  0  0  0  0  0  0  0  0
   19.0982   -9.1322   19.7667 C   0  0  2  0  0  0  0  0  0  0  0  0
   20.3526   -9.8371   19.2287 C   0  0  2  0  0  0  0  0  0  0  0  0
   18.4660  -10.6655   21.1481 H   0  0  0  0  0  0  0  0  0  0  0  0
   17.1940   -9.5564   20.7627 H   0  0  0  0  0  0  0  0  0  0  0  0
   19.3963   -8.4469   20.5610 H   0  0  0  0  0  0  0  0  0  0  0  0
   18.6758   -8.5032   18.9824 H   0  0  0  0  0  0  0  0  0  0  0  0
   21.0923   -9.1091   18.8982 H   0  0  0  0  0  0  0  0  0  0  0  0
   20.1176  -10.4714   18.3749 H   0  0  0  0  0  0  0  0  0  0  0  0
   20.8211  -10.4590   19.9926 H   0  0  0  0  0  0  0  0  0  0  0  0
   15.3251   -7.4913   14.7744 H   0  0  0  0  0  0  0  0  0  0  0  0
  1  4  1  0
  1 49  1  0
  2 16  1  0
  2 17  1  0
  2 18  1  0
  3 13  1  0
  3 14  1  0
  4  7  1  0
  4 13  2  0
  5 15  1  0
  5 17  2  0
  5 59  1  0
  6 16  2  0
  7  9  2  0
  7 30  1  0
  8 17  1  0
  8 31  1  0
  8 32  1  0
  9 11  1  0
 15  9  1  1
 10 28  1  0
 10 29  2  0
 11 12  2  0
 11 33  1  0
 12 13  1  0
 12 34  1  0
 14 35  1  6
 14 36  1  0
 14 37  1  0
 15 16  1  0
 15 19  1  0
 18 38  1  6
 18 39  1  0
 18 40  1  0
 19 20  1  0
 19 24  2  0
 20 21  2  0
 20 41  1  0
 21 22  1  0
 21 42  1  0
 22 23  2  0
 22 43  1  0
 23 24  1  0
 23 25  1  0
 24 44  1  0
 25 26  2  0
 25 29  1  0
 26 27  1  0
 26 45  1  0
 27 28  2  0
 27 46  1  0
 28 47  1  0
 29 48  1  0
 49 50  1  0
 49 52  1  1
 49 53  1  0
 50 51  1  0
 50 54  1  1
 50 55  1  0
 51 56  1  6
 51 57  1  0
 51 58  1  0
M  CHG  1   5   1
M  END
