38 in
     RDKit          3D

 52 55  0  0  1  0  0  0  0  0999 V2000
   15.6936  -12.3256   15.0108 C   0  0  1  0  0  0  0  0  0  0  0  0
   15.8264   -5.5367   17.2064 N   0  0  0  0  0  0  0  0  0  0  0  0
   17.2510  -12.8601   17.4153 O   0  0  0  0  0  0  0  0  0  0  0  0
   15.9182  -11.3149   16.1478 C   0  0  0  0  0  0  0  0  0  0  0  0
   15.4498   -7.0677   15.7234 N   0  0  0  0  0  0  0  0  0  0  0  0
   14.9699   -6.6568   19.1601 O   0  0  0  0  0  0  0  0  0  0  0  0
   15.3292  -10.0470   16.0534 C   0  0  0  0  0  0  0  0  0  0  0  0
   16.5636   -5.1609   14.9794 N   0  0  0  0  0  0  0  0  0  0  0  0
   15.4786   -9.0840   17.0666 C   0  0  0  0  0  0  0  0  0  0  0  0
   10.4080   -3.6378   13.8731 N   0  0  0  0  0  0  0  0  0  0  0  0
   16.2507   -9.4173   18.1888 C   0  0  0  0  0  0  0  0  0  0  0  0
   16.8474  -10.6649   18.2932 C   0  0  0  0  0  0  0  0  0  0  0  0
   16.6936  -11.6115   17.2796 C   0  0  0  0  0  0  0  0  0  0  0  0
   18.6211  -13.0081   17.0722 C   0  0  2  0  0  0  0  0  0  0  0  0
   14.8186   -7.6862   16.8803 C   0  0  1  0  0  0  0  0  0  0  0  0
   15.1860   -6.6279   17.9461 C   0  0  0  0  0  0  0  0  0  0  0  0
   15.9746   -5.8728   15.9282 C   0  0  0  0  0  0  0  0  0  0  0  0
   16.2949   -4.2892   17.8186 C   0  0  2  0  0  0  0  0  0  0  0  0
   13.2704   -7.6963   16.7533 C   0  0  0  0  0  0  0  0  0  0  0  0
   12.4965   -8.7580   17.2407 C   0  0  0  0  0  0  0  0  0  0  0  0
   11.1048   -8.7322   17.1839 C   0  0  0  0  0  0  0  0  0  0  0  0
   10.4555   -7.6269   16.6452 C   0  0  0  0  0  0  0  0  0  0  0  0
   11.1914   -6.5460   16.1528 C   0  0  0  0  0  0  0  0  0  0  0  0
   12.5897   -6.5982   16.2014 C   0  0  0  0  0  0  0  0  0  0  0  0
   10.5094   -5.3437   15.5985 C   0  0  0  0  0  0  0  0  0  0  0  0
    9.4169   -4.7535   16.2449 C   0  0  0  0  0  0  0  0  0  0  0  0
    8.8323   -3.6058   15.7107 C   0  0  0  0  0  0  0  0  0  0  0  0
    9.3596   -3.0882   14.5301 C   0  0  0  0  0  0  0  0  0  0  0  0
   10.9638   -4.7470   14.4189 C   0  0  0  0  0  0  0  0  0  0  0  0
   14.7398   -9.8037   15.1791 H   0  0  0  0  0  0  0  0  0  0  0  0
   16.5040   -5.4627   14.0005 H   0  0  0  0  0  0  0  0  0  0  0  0
   16.8985   -4.1978   15.1334 H   0  0  0  0  0  0  0  0  0  0  0  0
   16.4091   -8.7213   18.9989 H   0  0  0  0  0  0  0  0  0  0  0  0
   17.4194  -10.8958   19.1778 H   0  0  0  0  0  0  0  0  0  0  0  0
   18.8413  -14.0749   17.0520 H   0  0  0  0  0  0  0  0  0  0  0  0
   19.2833  -12.5478   17.8068 H   0  0  0  0  0  0  0  0  0  0  0  0
   18.8406  -12.6008   16.0825 H   0  0  0  0  0  0  0  0  0  0  0  0
   16.1061   -3.4716   17.1186 H   0  0  0  0  0  0  0  0  0  0  0  0
   17.3660   -4.3756   18.0056 H   0  0  0  0  0  0  0  0  0  0  0  0
   15.7538   -4.1111   18.7491 H   0  0  0  0  0  0  0  0  0  0  0  0
   12.9700   -9.6146   17.6958 H   0  0  0  0  0  0  0  0  0  0  0  0
   10.5285   -9.5614   17.5683 H   0  0  0  0  0  0  0  0  0  0  0  0
    9.3753   -7.6141   16.6157 H   0  0  0  0  0  0  0  0  0  0  0  0
   13.1531   -5.7497   15.8366 H   0  0  0  0  0  0  0  0  0  0  0  0
    9.0353   -5.1691   17.1663 H   0  0  0  0  0  0  0  0  0  0  0  0
    7.9965   -3.1280   16.1995 H   0  0  0  0  0  0  0  0  0  0  0  0
    8.9348   -2.1977   14.0899 H   0  0  0  0  0  0  0  0  0  0  0  0
   11.8202   -5.1507   13.8995 H   0  0  0  0  0  0  0  0  0  0  0  0
   14.3946  -12.5863   14.9130 F   0  0  0  0  0  0  0  0  0  0  0  0
   16.1050  -11.8199   13.8540 F   0  0  0  0  0  0  0  0  0  0  0  0
   16.3221  -13.4885   15.1506 F   0  0  0  0  0  0  0  0  0  0  0  0
   15.4529   -7.4996   14.7963 H   0  0  0  0  0  0  0  0  0  0  0  0
  1  4  1  0
  1 49  1  6
  1 50  1  0
  1 51  1  0
  2 16  1  0
  2 17  1  0
  2 18  1  0
  3 13  1  0
  3 14  1  0
  4  7  1  0
  4 13  2  0
  5 15  1  0
  5 17  2  0
  5 52  1  0
  6 16  2  0
  7  9  2  0
  7 30  1  0
  8 17  1  0
  8 31  1  0
  8 32  1  0
  9 11  1  0
 15  9  1  1
 10 28  1  0
 10 29  2  0
 11 12  2  0
 11 33  1  0
 12 13  1  0
 12 34  1  0
 14 35  1  6
 14 36  1  0
 14 37  1  0
 15 16  1  0
 15 19  1  0
 18 38  1  6
 18 39  1  0
 18 40  1  0
 19 20  1  0
 19 24  2  0
 20 21  2  0
 20 41  1  0
 21 22  1  0
 21 42  1  0
 22 23  2  0
 22 43  1  0
 23 24  1  0
 23 25  1  0
 24 44  1  0
 25 26  2  0
 25 29  1  0
 26 27  1  0
 26 45  1  0
 27 28  2  0
 27 46  1  0
 28 47  1  0
 29 48  1  0
M  CHG  1   5   1
M  END
