1
     RDKit          3D

 55 57  0  0  1  0  0  0  0  0999 V2000
   31.7664   72.0075   81.6099 C   0  0  1  0  0  0  0  0  0  0  0  0
   31.0668   72.5611   82.8589 C   0  0  2  0  0  0  0  0  0  0  0  0
   29.6070   72.0848   82.9870 C   0  0  2  0  0  0  0  0  0  0  0  0
   28.9885   72.5425   84.1883 O   0  0  0  0  0  0  0  0  0  0  0  0
   28.8043   73.8803   84.3348 C   0  0  0  0  0  0  0  0  0  0  0  0
   27.9090   74.7783   83.1570 S   0  0  0  0  0  0  0  0  0  0  0  0
   28.1194   76.2517   84.0754 C   0  0  0  0  0  0  0  0  0  0  0  0
   27.5852   77.4998   83.5057 C   0  0  0  0  0  0  0  0  0  0  0  0
   27.8826   77.8417   82.3606 O   0  0  0  0  0  0  0  0  0  0  0  0
   26.7581   78.2378   84.2893 N   0  0  0  0  0  0  0  0  0  0  0  0
   26.1674   77.8959   85.5894 C   0  0  1  0  0  0  0  0  0  0  0  0
   24.6682   77.5528   85.3738 C   0  0  1  0  0  0  0  0  0  0  0  0
   23.8835   78.7123   84.7032 C   0  0  2  0  0  0  0  0  0  0  0  0
   22.4395   78.3190   84.3728 C   0  0  0  0  0  0  0  0  0  0  0  0
   21.4500   78.4266   85.3608 C   0  0  0  0  0  0  0  0  0  0  0  0
   20.1339   78.0643   85.0848 C   0  0  0  0  0  0  0  0  0  0  0  0
   19.7868   77.5962   83.8206 C   0  0  0  0  0  0  0  0  0  0  0  0
   20.7587   77.4765   82.8271 C   0  0  0  0  0  0  0  0  0  0  0  0
   20.3823   76.9390   81.4583 C   0  0  1  0  0  0  0  0  0  0  0  0
   20.6126   77.9970   80.4194 N   0  0  1  0  0  0  0  0  0  0  0  0
   22.0842   77.8213   83.1120 C   0  0  0  0  0  0  0  0  0  0  0  0
   24.7008   79.3788   83.5523 C   0  0  1  0  0  0  0  0  0  0  0  0
   26.2053   79.5471   83.9161 C   0  0  1  0  0  0  0  0  0  0  0  0
   28.9098   76.0518   85.2253 C   0  0  0  0  0  0  0  0  0  0  0  0
   29.3722   77.1139   86.1708 C   0  0  1  0  0  0  0  0  0  0  0  0
   29.2351   74.6943   85.3609 C   0  0  0  0  0  0  0  0  0  0  0  0
   30.2455   74.0058   86.8232 Br  0  0  0  0  0  0  0  0  0  0  0  0
   32.7950   72.3637   81.5506 H   0  0  0  0  0  0  0  0  0  0  0  0
   31.7919   70.9175   81.6235 H   0  0  0  0  0  0  0  0  0  0  0  0
   31.2530   72.3199   80.7001 H   0  0  0  0  0  0  0  0  0  0  0  0
   31.0902   73.6511   82.8327 H   0  0  0  0  0  0  0  0  0  0  0  0
   31.6235   72.2614   83.7475 H   0  0  0  0  0  0  0  0  0  0  0  0
   29.5731   70.9941   82.9693 H   0  0  0  0  0  0  0  0  0  0  0  0
   29.0249   72.4636   82.1465 H   0  0  0  0  0  0  0  0  0  0  0  0
   26.6937   77.0342   86.0024 H   0  0  0  0  0  0  0  0  0  0  0  0
   26.2751   78.6812   86.3368 H   0  0  0  0  0  0  0  0  0  0  0  0
   24.5765   76.6553   84.7613 H   0  0  0  0  0  0  0  0  0  0  0  0
   24.2151   77.3164   86.3368 H   0  0  0  0  0  0  0  0  0  0  0  0
   21.6996   78.7925   86.3461 H   0  0  0  0  0  0  0  0  0  0  0  0
   19.3798   78.1468   85.8537 H   0  0  0  0  0  0  0  0  0  0  0  0
   18.7609   77.3270   83.6151 H   0  0  0  0  0  0  0  0  0  0  0  0
   20.9772   76.0546   81.2270 H   0  0  0  0  0  0  0  0  0  0  0  0
   19.3354   76.6330   81.4520 H   0  0  0  0  0  0  0  0  0  0  0  0
   20.3619   77.6396   79.5087 H   0  0  0  0  0  0  0  0  0  0  0  0
   20.0459   78.8053   80.6330 H   0  0  0  0  0  0  0  0  0  0  0  0
   22.8398   77.7012   82.3492 H   0  0  0  0  0  0  0  0  0  0  0  0
   24.6145   78.7860   82.6411 H   0  0  0  0  0  0  0  0  0  0  0  0
   24.2942   80.3639   83.3205 H   0  0  0  0  0  0  0  0  0  0  0  0
   26.3062   80.2917   84.7069 H   0  0  0  0  0  0  0  0  0  0  0  0
   26.7565   79.9440   83.0624 H   0  0  0  0  0  0  0  0  0  0  0  0
   29.1469   78.1171   85.8091 H   0  0  0  0  0  0  0  0  0  0  0  0
   28.8958   77.0033   87.1450 H   0  0  0  0  0  0  0  0  0  0  0  0
   30.4504   77.0622   86.3230 H   0  0  0  0  0  0  0  0  0  0  0  0
   21.5871   78.2623   80.4219 H   0  0  0  0  0  0  0  0  0  0  0  0
   23.7993   79.4799   85.4725 H   0  0  0  0  0  0  0  0  0  0  0  0
  1  2  1  0
  1 28  1  6
  1 29  1  0
  1 30  1  0
  2  3  1  0
  2 31  1  6
  2 32  1  0
  3  4  1  0
  3 33  1  1
  3 34  1  0
  4  5  1  0
  5 26  2  0
  5  6  1  0
  6  7  1  0
  7  8  1  0
  7 24  2  0
  8  9  2  0
  8 10  1  0
 10 23  1  0
 10 11  1  0
 11 12  1  0
 11 35  1  1
 11 36  1  0
 12 13  1  0
 12 37  1  6
 12 38  1  0
 13 14  1  0
 13 22  1  0
 13 55  1  1
 14 21  1  0
 14 15  2  0
 15 16  1  0
 15 39  1  0
 16 17  2  0
 16 40  1  0
 17 18  1  0
 17 41  1  0
 18 19  1  0
 18 21  2  0
 19 20  1  0
 19 42  1  6
 19 43  1  0
 20 44  1  6
 20 45  1  0
 20 54  1  0
 21 46  1  0
 22 23  1  0
 22 47  1  6
 22 48  1  0
 23 49  1  1
 23 50  1  0
 24 25  1  0
 24 26  1  0
 25 51  1  6
 25 52  1  0
 25 53  1  0
 26 27  1  0
M  CHG  1  20   1
M  END
