4kD
     RDKit          3D

 36 38  0  0  1  0  0  0  0  0999 V2000
   -0.3854    3.1609   16.3527 N   0  0  0  0  0  0  0  0  0  0  0  0
   -1.3042    2.7756   15.4553 N   0  0  0  0  0  0  0  0  0  0  0  0
   -0.9458    2.4954   14.1678 C   0  0  0  0  0  0  0  0  0  0  0  0
    0.4263    2.5176   13.8016 C   0  0  0  0  0  0  0  0  0  0  0  0
    1.3456    2.9605   14.7024 N   0  0  0  0  0  0  0  0  0  0  0  0
    0.8937    3.2764   15.9329 C   0  0  0  0  0  0  0  0  0  0  0  0
   -4.2327    1.8940   11.4292 N   0  0  0  0  0  0  0  0  0  0  0  0
   -4.3100    1.4534   12.7121 C   0  0  0  0  0  0  0  0  0  0  0  0
   -3.2761    1.6305   13.6371 C   0  0  0  0  0  0  0  0  0  0  0  0
   -2.0992    2.2866   13.2412 C   0  0  0  0  0  0  0  0  0  0  0  0
   -2.0457    2.7814   11.9361 C   0  0  0  0  0  0  0  0  0  0  0  0
   -3.0980    2.5412   11.0510 C   0  0  0  0  0  0  0  0  0  0  0  0
    2.1259    1.2397   10.0414 C   0  0  0  0  0  0  0  0  0  0  0  0
    0.9656    0.6391   10.5173 C   0  0  0  0  0  0  0  0  0  0  0  0
    0.4286    1.0375   11.7385 C   0  0  0  0  0  0  0  0  0  0  0  0
    1.0153    2.0667   12.4893 C   0  0  0  0  0  0  0  0  0  0  0  0
    2.1987    2.6391   11.9934 C   0  0  0  0  0  0  0  0  0  0  0  0
    2.7495    2.2387   10.7796 C   0  0  0  0  0  0  0  0  0  0  0  0
    1.8136    3.7877   16.8275 N   0  0  0  0  0  0  0  0  0  0  0  0
   -2.9768    2.9204    9.5818 C   0  0  1  0  0  0  0  0  0  0  0  0
   -5.5841    0.7281   13.1023 C   0  0  2  0  0  0  0  0  0  0  0  0
   -3.3773    1.2435   14.6409 H   0  0  0  0  0  0  0  0  0  0  0  0
   -1.1706    3.3200   11.6043 H   0  0  0  0  0  0  0  0  0  0  0  0
    2.5478    0.9231    9.0986 H   0  0  0  0  0  0  0  0  0  0  0  0
    0.4930   -0.1533    9.9525 H   0  0  0  0  0  0  0  0  0  0  0  0
   -0.4528    0.5289   12.1006 H   0  0  0  0  0  0  0  0  0  0  0  0
    2.6885    3.4349   12.5352 H   0  0  0  0  0  0  0  0  0  0  0  0
    3.6537    2.7024   10.4122 H   0  0  0  0  0  0  0  0  0  0  0  0
    2.7378    4.0565   16.4948 H   0  0  0  0  0  0  0  0  0  0  0  0
    1.5282    3.9545   17.7916 H   0  0  0  0  0  0  0  0  0  0  0  0
   -3.8506    3.8392    9.2277 F   0  0  0  0  0  0  0  0  0  0  0  0
   -1.7865    3.4391    9.3152 F   0  0  0  0  0  0  0  0  0  0  0  0
   -3.1704    1.8405    8.8276 F   0  0  0  0  0  0  0  0  0  0  0  0
   -5.3506   -0.1941   13.6365 H   0  0  0  0  0  0  0  0  0  0  0  0
   -6.1872    0.4636   12.2333 H   0  0  0  0  0  0  0  0  0  0  0  0
   -6.1859    1.3584   13.7571 H   0  0  0  0  0  0  0  0  0  0  0  0
  1  2  1  0
  1  6  2  0
  2  3  2  0
  3  4  1  0
  3 10  1  0
  4  5  2  0
  4 16  1  0
  5  6  1  0
  6 19  1  0
  7  8  1  0
  7 12  2  0
  8  9  2  0
  8 21  1  0
  9 10  1  0
  9 22  1  0
 10 11  2  0
 11 12  1  0
 11 23  1  0
 12 20  1  0
 13 14  1  0
 13 18  2  0
 13 24  1  0
 14 15  2  0
 14 25  1  0
 15 16  1  0
 15 26  1  0
 16 17  2  0
 17 18  1  0
 17 27  1  0
 18 28  1  0
 19 29  1  0
 19 30  1  0
 20 31  1  6
 20 32  1  0
 20 33  1  0
 21 34  1  1
 21 35  1  0
 21 36  1  0
M  END
