4q
     RDKit          3D

 30 32  0  0  1  0  0  0  0  0999 V2000
   -0.4061    3.1508   16.2472 N   0  0  0  0  0  0  0  0  0  0  0  0
   -1.3128    2.8248   15.3115 N   0  0  0  0  0  0  0  0  0  0  0  0
   -0.9321    2.5480   14.0282 C   0  0  0  0  0  0  0  0  0  0  0  0
    0.4492    2.5322   13.7055 C   0  0  0  0  0  0  0  0  0  0  0  0
    1.3616    2.9128   14.6456 N   0  0  0  0  0  0  0  0  0  0  0  0
    0.8921    3.2120   15.8761 C   0  0  0  0  0  0  0  0  0  0  0  0
   -4.2416    2.0092   11.2822 N   0  0  0  0  0  0  0  0  0  0  0  0
   -4.3052    1.5546   12.5585 C   0  0  0  0  0  0  0  0  0  0  0  0
   -3.2587    1.7053   13.4717 C   0  0  0  0  0  0  0  0  0  0  0  0
   -2.0725    2.3457   13.0731 C   0  0  0  0  0  0  0  0  0  0  0  0
   -2.0195    2.8332   11.7577 C   0  0  0  0  0  0  0  0  0  0  0  0
   -3.1037    2.6391   10.8998 C   0  0  0  0  0  0  0  0  0  0  0  0
    2.2171    1.2222    9.9972 C   0  0  0  0  0  0  0  0  0  0  0  0
    1.0361    0.6393   10.4437 C   0  0  0  0  0  0  0  0  0  0  0  0
    0.4724    1.0502   11.6480 C   0  0  0  0  0  0  0  0  0  0  0  0
    1.0546    2.0766   12.4066 C   0  0  0  0  0  0  0  0  0  0  0  0
    2.2526    2.6390   11.9376 C   0  0  0  0  0  0  0  0  0  0  0  0
    2.8320    2.2201   10.7438 C   0  0  0  0  0  0  0  0  0  0  0  0
    1.8130    3.6268   16.8273 N   0  0  0  0  0  0  0  0  0  0  0  0
   -5.2206    1.0583   12.8464 H   0  0  0  0  0  0  0  0  0  0  0  0
   -3.3658    1.3171   14.4741 H   0  0  0  0  0  0  0  0  0  0  0  0
   -1.1497    3.3647   11.4031 H   0  0  0  0  0  0  0  0  0  0  0  0
   -3.0738    3.0081    9.8847 H   0  0  0  0  0  0  0  0  0  0  0  0
    2.6583    0.8966    9.0667 H   0  0  0  0  0  0  0  0  0  0  0  0
    0.5632   -0.1389    9.8627 H   0  0  0  0  0  0  0  0  0  0  0  0
   -0.4251    0.5563   11.9907 H   0  0  0  0  0  0  0  0  0  0  0  0
    2.7363    3.4326   12.4880 H   0  0  0  0  0  0  0  0  0  0  0  0
    3.7506    2.6713   10.3969 H   0  0  0  0  0  0  0  0  0  0  0  0
    2.7400    3.9065   16.5172 H   0  0  0  0  0  0  0  0  0  0  0  0
    1.4926    3.8392   17.7711 H   0  0  0  0  0  0  0  0  0  0  0  0
  1  2  1  0
  1  6  2  0
  2  3  2  0
  3  4  1  0
  3 10  1  0
  4  5  2  0
  4 16  1  0
  5  6  1  0
  6 19  1  0
  7  8  1  0
  7 12  2  0
  8  9  2  0
  8 20  1  0
  9 10  1  0
  9 21  1  0
 10 11  2  0
 11 12  1  0
 11 22  1  0
 12 23  1  0
 13 14  1  0
 13 18  2  0
 13 24  1  0
 14 15  2  0
 14 25  1  0
 15 16  1  0
 15 26  1  0
 16 17  2  0
 17 18  1  0
 17 27  1  0
 18 28  1  0
 19 29  1  0
 19 30  1  0
M  END
