4e U
     RDKit          3D

 32 34  0  0  1  0  0  0  0  0999 V2000
   -0.3977    3.2308   16.2049 N   0  0  0  0  0  0  0  0  0  0  0  0
   -1.3093    2.8639   15.2959 N   0  0  0  0  0  0  0  0  0  0  0  0
   -0.9130    2.4671   14.0586 C   0  0  0  0  0  0  0  0  0  0  0  0
    0.4800    2.4281   13.7433 C   0  0  0  0  0  0  0  0  0  0  0  0
    1.3835    2.8004   14.6833 N   0  0  0  0  0  0  0  0  0  0  0  0
    0.8817    3.1741   15.8500 C   0  0  0  0  0  0  0  0  0  0  0  0
   -4.1352    1.4827   11.3690 C   0  0  0  0  0  0  0  0  0  0  0  0
   -3.1873    2.4549   11.0127 C   0  0  0  0  0  0  0  0  0  0  0  0
   -2.1407    2.7725   11.8978 C   0  0  0  0  0  0  0  0  0  0  0  0
   -2.0268    2.1266   13.1507 C   0  0  0  0  0  0  0  0  0  0  0  0
   -2.9877    1.1495   13.4953 C   0  0  0  0  0  0  0  0  0  0  0  0
   -4.0370    0.8299   12.6121 C   0  0  0  0  0  0  0  0  0  0  0  0
    2.2099    1.2948    9.9350 C   0  0  0  0  0  0  0  0  0  0  0  0
    1.0660    0.6300   10.4099 C   0  0  0  0  0  0  0  0  0  0  0  0
    0.5124    0.9806   11.6574 C   0  0  0  0  0  0  0  0  0  0  0  0
    1.0684    2.0173   12.4445 C   0  0  0  0  0  0  0  0  0  0  0  0
    2.2310    2.6601   11.9526 C   0  0  0  0  0  0  0  0  0  0  0  0
    2.8020    2.3023   10.7154 C   0  0  0  0  0  0  0  0  0  0  0  0
    1.7744    3.5753   16.7838 N   0  0  0  0  0  0  0  0  0  0  0  0
   -5.2095   -0.3582   13.0520 Cl  0  0  0  0  0  0  0  0  0  0  0  0
   -5.1472    1.1749   10.5098 O   0  0  0  0  0  0  0  0  0  0  0  0
   -3.2612    2.9554   10.0583 H   0  0  0  0  0  0  0  0  0  0  0  0
   -1.4112    3.5169   11.6097 H   0  0  0  0  0  0  0  0  0  0  0  0
   -2.9216    0.6397   14.4458 H   0  0  0  0  0  0  0  0  0  0  0  0
    2.6435    1.0209    8.9839 H   0  0  0  0  0  0  0  0  0  0  0  0
    0.6171   -0.1565    9.8206 H   0  0  0  0  0  0  0  0  0  0  0  0
   -0.3531    0.4377   12.0047 H   0  0  0  0  0  0  0  0  0  0  0  0
    2.6995    3.4391   12.5375 H   0  0  0  0  0  0  0  0  0  0  0  0
    3.6955    2.7985   10.3649 H   0  0  0  0  0  0  0  0  0  0  0  0
    2.7055    3.7850   16.4693 H   0  0  0  0  0  0  0  0  0  0  0  0
    1.4004    4.0833   17.5680 H   0  0  0  0  0  0  0  0  0  0  0  0
   -5.1120    1.7149    9.7323 H   0  0  0  0  0  0  0  0  0  0  0  0
  1  2  1  0
  1  6  2  0
  2  3  2  0
  3  4  1  0
  3 10  1  0
  4  5  2  0
  4 16  1  0
  5  6  1  0
  6 19  1  0
  7  8  1  0
  7 12  2  0
  7 21  1  0
  8  9  2  0
  8 22  1  0
  9 10  1  0
  9 23  1  0
 10 11  2  0
 11 12  1  0
 11 24  1  0
 12 20  1  0
 13 14  1  0
 13 18  2  0
 13 25  1  0
 14 15  2  0
 14 26  1  0
 15 16  1  0
 15 27  1  0
 16 17  2  0
 17 18  1  0
 17 28  1  0
 18 29  1  0
 19 30  1  0
 19 31  1  0
 21 32  1  0
M  END
