4n
     RDKit          3D

 30 32  0  0  1  0  0  0  0  0999 V2000
   -0.4064    3.1202   16.2651 N   0  0  0  0  0  0  0  0  0  0  0  0
   -1.3183    2.7853   15.3379 N   0  0  0  0  0  0  0  0  0  0  0  0
   -0.9446    2.5156   14.0513 C   0  0  0  0  0  0  0  0  0  0  0  0
    0.4320    2.5164   13.7144 C   0  0  0  0  0  0  0  0  0  0  0  0
    1.3495    2.9056   14.6462 N   0  0  0  0  0  0  0  0  0  0  0  0
    0.8885    3.1970   15.8823 C   0  0  0  0  0  0  0  0  0  0  0  0
   -4.2480    1.9367   11.3258 N   0  0  0  0  0  0  0  0  0  0  0  0
   -4.2832    1.4215   12.5805 C   0  0  0  0  0  0  0  0  0  0  0  0
   -3.2335    1.5902   13.4866 C   0  0  0  0  0  0  0  0  0  0  0  0
   -2.0861    2.3033   13.1043 C   0  0  0  0  0  0  0  0  0  0  0  0
   -2.0675    2.8455   11.8105 C   0  0  0  0  0  0  0  0  0  0  0  0
   -3.1509    2.6413   10.9530 C   0  0  0  0  0  0  0  0  0  0  0  0
    2.1734    1.2246    9.9864 C   0  0  0  0  0  0  0  0  0  0  0  0
    0.9958    0.6391   10.4386 C   0  0  0  0  0  0  0  0  0  0  0  0
    0.4386    1.0472   11.6469 C   0  0  0  0  0  0  0  0  0  0  0  0
    1.0246    2.0719   12.4054 C   0  0  0  0  0  0  0  0  0  0  0  0
    2.2177    2.6389   11.9291 C   0  0  0  0  0  0  0  0  0  0  0  0
    2.7894    2.2245   10.7300 C   0  0  0  0  0  0  0  0  0  0  0  0
    1.8133    3.6211   16.8266 N   0  0  0  0  0  0  0  0  0  0  0  0
   -3.1079    3.3207    9.3666 Cl  0  0  0  0  0  0  0  0  0  0  0  0
   -5.6738    0.5204   13.0626 Cl  0  0  0  0  0  0  0  0  0  0  0  0
   -3.3050    1.1564   14.4737 H   0  0  0  0  0  0  0  0  0  0  0  0
   -1.2225    3.4283   11.4757 H   0  0  0  0  0  0  0  0  0  0  0  0
    2.6125    0.8990    9.0545 H   0  0  0  0  0  0  0  0  0  0  0  0
    0.5264   -0.1506    9.8669 H   0  0  0  0  0  0  0  0  0  0  0  0
   -0.4526    0.5459   11.9951 H   0  0  0  0  0  0  0  0  0  0  0  0
    2.7055    3.4304   12.4791 H   0  0  0  0  0  0  0  0  0  0  0  0
    3.7056    2.6783   10.3791 H   0  0  0  0  0  0  0  0  0  0  0  0
    2.7371    3.9055   16.5115 H   0  0  0  0  0  0  0  0  0  0  0  0
    1.4957    3.8404   17.7698 H   0  0  0  0  0  0  0  0  0  0  0  0
  1  2  1  0
  1  6  2  0
  2  3  2  0
  3  4  1  0
  3 10  1  0
  4  5  2  0
  4 16  1  0
  5  6  1  0
  6 19  1  0
  7  8  1  0
  7 12  2  0
  8  9  2  0
  8 21  1  0
  9 10  1  0
  9 22  1  0
 10 11  2  0
 11 12  1  0
 11 23  1  0
 12 20  1  0
 13 14  1  0
 13 18  2  0
 13 24  1  0
 14 15  2  0
 14 25  1  0
 15 16  1  0
 15 26  1  0
 16 17  2  0
 17 18  1  0
 17 27  1  0
 18 28  1  0
 19 29  1  0
 19 30  1  0
M  END
