4m U
     RDKit          3D

 30 32  0  0  1  0  0  0  0  0999 V2000
   -0.4503    3.1059   16.2400 N   0  0  0  0  0  0  0  0  0  0  0  0
   -1.3518    2.7843   15.2985 N   0  0  0  0  0  0  0  0  0  0  0  0
   -0.9692    2.5295   14.0125 C   0  0  0  0  0  0  0  0  0  0  0  0
    0.4123    2.5173   13.6972 C   0  0  0  0  0  0  0  0  0  0  0  0
    1.3234    2.8953   14.6426 N   0  0  0  0  0  0  0  0  0  0  0  0
    0.8483    3.1855   15.8731 C   0  0  0  0  0  0  0  0  0  0  0  0
   -4.2842    2.0490   11.2648 N   0  0  0  0  0  0  0  0  0  0  0  0
   -3.1308    2.6459   10.8707 C   0  0  0  0  0  0  0  0  0  0  0  0
   -2.0445    2.8095   11.7319 C   0  0  0  0  0  0  0  0  0  0  0  0
   -2.1085    2.3375   13.0563 C   0  0  0  0  0  0  0  0  0  0  0  0
   -3.3161    1.7370   13.4576 C   0  0  0  0  0  0  0  0  0  0  0  0
   -4.3645    1.6085   12.5444 C   0  0  0  0  0  0  0  0  0  0  0  0
    2.2032    1.2223    9.9946 C   0  0  0  0  0  0  0  0  0  0  0  0
    1.0199    0.6384   10.4344 C   0  0  0  0  0  0  0  0  0  0  0  0
    0.4508    1.0445   11.6373 C   0  0  0  0  0  0  0  0  0  0  0  0
    1.0232    2.0723   12.3991 C   0  0  0  0  0  0  0  0  0  0  0  0
    2.2230    2.6390   11.9392 C   0  0  0  0  0  0  0  0  0  0  0  0
    2.8111    2.2201   10.7464 C   0  0  0  0  0  0  0  0  0  0  0  0
    1.7601    3.6117   16.8276 N   0  0  0  0  0  0  0  0  0  0  0  0
   -3.0599    3.0176    9.8591 H   0  0  0  0  0  0  0  0  0  0  0  0
   -1.1587    3.3145   11.3807 H   0  0  0  0  0  0  0  0  0  0  0  0
   -3.4391    1.3615   14.4632 H   0  0  0  0  0  0  0  0  0  0  0  0
   -5.8573    0.8649   13.0044 Cl  0  0  0  0  0  0  0  0  0  0  0  0
    2.6574    0.8952    9.0703 H   0  0  0  0  0  0  0  0  0  0  0  0
    0.5593   -0.1496    9.8534 H   0  0  0  0  0  0  0  0  0  0  0  0
   -0.4446    0.5431   11.9775 H   0  0  0  0  0  0  0  0  0  0  0  0
    2.7048    3.4297   12.4948 H   0  0  0  0  0  0  0  0  0  0  0  0
    3.7352    2.6662   10.4082 H   0  0  0  0  0  0  0  0  0  0  0  0
    2.6943    3.8714   16.5269 H   0  0  0  0  0  0  0  0  0  0  0  0
    1.4319    3.8400   17.7659 H   0  0  0  0  0  0  0  0  0  0  0  0
  1  2  1  0
  1  6  2  0
  2  3  2  0
  3  4  1  0
  3 10  1  0
  4  5  2  0
  4 16  1  0
  5  6  1  0
  6 19  1  0
  7  8  1  0
  7 12  2  0
  8  9  2  0
  8 20  1  0
  9 10  1  0
  9 21  1  0
 10 11  2  0
 11 12  1  0
 11 22  1  0
 12 23  1  0
 13 14  1  0
 13 18  2  0
 13 24  1  0
 14 15  2  0
 14 25  1  0
 15 16  1  0
 15 26  1  0
 16 17  2  0
 17 18  1  0
 17 27  1  0
 18 28  1  0
 19 29  1  0
 19 30  1  0
M  END
