4r D
     RDKit          3D

 33 35  0  0  1  0  0  0  0  0999 V2000
   -0.4086    3.1267   16.4027 N   0  0  0  0  0  0  0  0  0  0  0  0
   -1.3389    2.8673   15.4714 N   0  0  0  0  0  0  0  0  0  0  0  0
   -0.9722    2.5722   14.1831 C   0  0  0  0  0  0  0  0  0  0  0  0
    0.4042    2.4795   13.8481 C   0  0  0  0  0  0  0  0  0  0  0  0
    1.3448    2.7749   14.7865 N   0  0  0  0  0  0  0  0  0  0  0  0
    0.8862    3.1044   16.0102 C   0  0  0  0  0  0  0  0  0  0  0  0
   -4.2595    2.0314   11.4552 N   0  0  0  0  0  0  0  0  0  0  0  0
   -4.3608    1.6244   12.7442 C   0  0  0  0  0  0  0  0  0  0  0  0
   -3.3244    1.8016   13.6620 C   0  0  0  0  0  0  0  0  0  0  0  0
   -2.1271    2.4134   13.2544 C   0  0  0  0  0  0  0  0  0  0  0  0
   -2.0526    2.8816   11.9412 C   0  0  0  0  0  0  0  0  0  0  0  0
   -3.1055    2.6348   11.0578 C   0  0  0  0  0  0  0  0  0  0  0  0
    2.0672    1.2380   10.0585 C   0  0  0  0  0  0  0  0  0  0  0  0
    0.9021    0.6416   10.5407 C   0  0  0  0  0  0  0  0  0  0  0  0
    0.3748    1.0140   11.7813 C   0  0  0  0  0  0  0  0  0  0  0  0
    0.9709    2.0459   12.5235 C   0  0  0  0  0  0  0  0  0  0  0  0
    2.1496    2.6390   12.0209 C   0  0  0  0  0  0  0  0  0  0  0  0
    2.6960    2.2352   10.7990 C   0  0  0  0  0  0  0  0  0  0  0  0
    1.8175    3.4877   16.9491 N   0  0  0  0  0  0  0  0  0  0  0  0
   -2.9779    2.9515    9.5771 C   0  0  1  0  0  0  0  0  0  0  0  0
   -5.7859    0.8002   13.2589 Cl  0  0  0  0  0  0  0  0  0  0  0  0
    2.5905    0.8428    8.8783 F   0  0  0  0  0  0  0  0  0  0  0  0
   -3.8590    3.8660    9.2214 F   0  0  0  0  0  0  0  0  0  0  0  0
   -1.7869    3.4391    9.2775 F   0  0  0  0  0  0  0  0  0  0  0  0
   -3.1991    1.8630    8.8512 F   0  0  0  0  0  0  0  0  0  0  0  0
   -3.4498    1.4457   14.6710 H   0  0  0  0  0  0  0  0  0  0  0  0
   -1.1712    3.4092   11.6055 H   0  0  0  0  0  0  0  0  0  0  0  0
    0.4411   -0.1417    9.9748 H   0  0  0  0  0  0  0  0  0  0  0  0
   -0.4837    0.4847   12.1668 H   0  0  0  0  0  0  0  0  0  0  0  0
    2.6275    3.4358   12.5603 H   0  0  0  0  0  0  0  0  0  0  0  0
    3.5940    2.6919   10.4298 H   0  0  0  0  0  0  0  0  0  0  0  0
    2.7545    3.7185   16.6269 H   0  0  0  0  0  0  0  0  0  0  0  0
    1.4925    3.8003   17.8584 H   0  0  0  0  0  0  0  0  0  0  0  0
  1  2  1  0
  1  6  2  0
  2  3  2  0
  3  4  1  0
  3 10  1  0
  4  5  2  0
  4 16  1  0
  5  6  1  0
  6 19  1  0
  7  8  1  0
  7 12  2  0
  8  9  2  0
  8 21  1  0
  9 10  1  0
  9 26  1  0
 10 11  2  0
 11 12  1  0
 11 27  1  0
 12 20  1  0
 13 14  1  0
 13 18  2  0
 13 22  1  0
 14 15  2  0
 14 28  1  0
 15 16  1  0
 15 29  1  0
 16 17  2  0
 17 18  1  0
 17 30  1  0
 18 31  1  0
 19 32  1  0
 19 33  1  0
 20 23  1  6
 20 24  1  0
 20 25  1  0
M  END
