4lD
     RDKit          3D

 36 38  0  0  1  0  0  0  0  0999 V2000
   -0.3883    3.1291   16.3463 N   0  0  0  0  0  0  0  0  0  0  0  0
   -1.3118    2.7723   15.4439 N   0  0  0  0  0  0  0  0  0  0  0  0
   -0.9530    2.4921   14.1571 C   0  0  0  0  0  0  0  0  0  0  0  0
    0.4209    2.4795   13.7976 C   0  0  0  0  0  0  0  0  0  0  0  0
    1.3513    2.8729   14.7090 N   0  0  0  0  0  0  0  0  0  0  0  0
    0.8953    3.2053   15.9338 C   0  0  0  0  0  0  0  0  0  0  0  0
   -4.2368    1.8957   11.4212 N   0  0  0  0  0  0  0  0  0  0  0  0
   -4.3129    1.4529   12.7037 C   0  0  0  0  0  0  0  0  0  0  0  0
   -3.2792    1.6301   13.6275 C   0  0  0  0  0  0  0  0  0  0  0  0
   -2.1049    2.2901   13.2314 C   0  0  0  0  0  0  0  0  0  0  0  0
   -2.0502    2.7874   11.9282 C   0  0  0  0  0  0  0  0  0  0  0  0
   -3.1029    2.5459   11.0448 C   0  0  0  0  0  0  0  0  0  0  0  0
    2.0917    1.2411   10.0181 C   0  0  0  0  0  0  0  0  0  0  0  0
    2.7158    2.2374   10.7566 C   0  0  0  0  0  0  0  0  0  0  0  0
    2.1650    2.6389   11.9702 C   0  0  0  0  0  0  0  0  0  0  0  0
    0.9987    2.0440   12.4783 C   0  0  0  0  0  0  0  0  0  0  0  0
    0.4147    1.0115   11.7321 C   0  0  0  0  0  0  0  0  0  0  0  0
    0.9354    0.6384   10.4964 C   0  0  0  0  0  0  0  0  0  0  0  0
    1.8135    3.7111   16.8277 N   0  0  0  0  0  0  0  0  0  0  0  0
   -2.9792    2.9257    9.5771 C   0  0  1  0  0  0  0  0  0  0  0  0
   -5.5849    0.7281   13.0979 C   0  0  2  0  0  0  0  0  0  0  0  0
   -3.3787    1.2410   14.6305 H   0  0  0  0  0  0  0  0  0  0  0  0
   -1.1755    3.3274   11.5979 H   0  0  0  0  0  0  0  0  0  0  0  0
    2.6091    0.8568    8.8298 F   0  0  0  0  0  0  0  0  0  0  0  0
    3.6156    2.7044   10.3825 H   0  0  0  0  0  0  0  0  0  0  0  0
    2.6514    3.4363   12.5126 H   0  0  0  0  0  0  0  0  0  0  0  0
   -0.4612    0.4975   12.1001 H   0  0  0  0  0  0  0  0  0  0  0  0
    0.4568   -0.1372    9.9180 H   0  0  0  0  0  0  0  0  0  0  0  0
    2.7407    3.9728   16.4995 H   0  0  0  0  0  0  0  0  0  0  0  0
    1.5257    3.8767   17.7917 H   0  0  0  0  0  0  0  0  0  0  0  0
   -3.8496    3.8478    9.2274 F   0  0  0  0  0  0  0  0  0  0  0  0
   -1.7866    3.4391    9.3085 F   0  0  0  0  0  0  0  0  0  0  0  0
   -3.1793    1.8447    8.8275 F   0  0  0  0  0  0  0  0  0  0  0  0
   -5.3521   -0.1867   13.6461 H   0  0  0  0  0  0  0  0  0  0  0  0
   -6.1868    0.4516   12.2298 H   0  0  0  0  0  0  0  0  0  0  0  0
   -6.1842    1.3683   13.7455 H   0  0  0  0  0  0  0  0  0  0  0  0
  1  2  1  0
  1  6  2  0
  2  3  2  0
  3  4  1  0
  3 10  1  0
  4  5  2  0
  4 16  1  0
  5  6  1  0
  6 19  1  0
  7  8  1  0
  7 12  2  0
  8  9  2  0
  8 21  1  0
  9 10  1  0
  9 22  1  0
 10 11  2  0
 11 12  1  0
 11 23  1  0
 12 20  1  0
 13 14  1  0
 13 18  2  0
 13 24  1  0
 14 15  2  0
 14 25  1  0
 15 16  1  0
 15 26  1  0
 16 17  2  0
 17 18  1  0
 17 27  1  0
 18 28  1  0
 19 29  1  0
 19 30  1  0
 20 31  1  6
 20 32  1  0
 20 33  1  0
 21 34  1  1
 21 35  1  0
 21 36  1  0
M  END
