4f
     RDKit          3D

 38 40  0  0  1  0  0  0  0  0999 V2000
   -0.3974    3.2266   16.2092 N   0  0  0  0  0  0  0  0  0  0  0  0
   -1.3102    2.8638   15.2986 N   0  0  0  0  0  0  0  0  0  0  0  0
   -0.9157    2.4676   14.0598 C   0  0  0  0  0  0  0  0  0  0  0  0
    0.4773    2.4304   13.7430 C   0  0  0  0  0  0  0  0  0  0  0  0
    1.3834    2.8045   14.6814 N   0  0  0  0  0  0  0  0  0  0  0  0
    0.8821    3.1729   15.8503 C   0  0  0  0  0  0  0  0  0  0  0  0
   -4.1769    1.4464   11.4313 C   0  0  0  0  0  0  0  0  0  0  0  0
   -4.0506    0.8125   12.6845 C   0  0  0  0  0  0  0  0  0  0  0  0
   -2.9801    1.1565   13.5328 C   0  0  0  0  0  0  0  0  0  0  0  0
   -2.0274    2.1265   13.1488 C   0  0  0  0  0  0  0  0  0  0  0  0
   -2.1696    2.7528   11.8905 C   0  0  0  0  0  0  0  0  0  0  0  0
   -3.2327    2.4148   11.0267 C   0  0  0  0  0  0  0  0  0  0  0  0
    2.2140    1.2906    9.9383 C   0  0  0  0  0  0  0  0  0  0  0  0
    1.0664    0.6289   10.4094 C   0  0  0  0  0  0  0  0  0  0  0  0
    0.5099    0.9823   11.6544 C   0  0  0  0  0  0  0  0  0  0  0  0
    1.0671    2.0191   12.4418 C   0  0  0  0  0  0  0  0  0  0  0  0
    2.2314    2.6620   11.9512 C   0  0  0  0  0  0  0  0  0  0  0  0
    2.8045    2.3014   10.7163 C   0  0  0  0  0  0  0  0  0  0  0  0
    1.7762    3.5746   16.7808 N   0  0  0  0  0  0  0  0  0  0  0  0
   -5.2178    1.1197   10.6122 O   0  0  0  0  0  0  0  0  0  0  0  0
   -2.8805    0.6775   14.4976 H   0  0  0  0  0  0  0  0  0  0  0  0
   -1.4430    3.4942   11.5874 H   0  0  0  0  0  0  0  0  0  0  0  0
    2.6483    1.0158    8.9869 H   0  0  0  0  0  0  0  0  0  0  0  0
    0.6138   -0.1541    9.8196 H   0  0  0  0  0  0  0  0  0  0  0  0
   -0.3609    0.4452   11.9989 H   0  0  0  0  0  0  0  0  0  0  0  0
    2.6979    3.4401   12.5375 H   0  0  0  0  0  0  0  0  0  0  0  0
    3.6974    2.7979   10.3660 H   0  0  0  0  0  0  0  0  0  0  0  0
    2.7032    3.7886   16.4579 H   0  0  0  0  0  0  0  0  0  0  0  0
    1.4002    4.0854   17.5617 H   0  0  0  0  0  0  0  0  0  0  0  0
   -5.2728    1.6688    9.8468 H   0  0  0  0  0  0  0  0  0  0  0  0
   -3.3448    3.0867    9.6706 C   0  0  1  0  0  0  0  0  0  0  0  0
   -2.5239    3.7854    9.5017 H   0  0  0  0  0  0  0  0  0  0  0  0
   -3.3168    2.3382    8.8768 H   0  0  0  0  0  0  0  0  0  0  0  0
   -4.2819    3.6412    9.5973 H   0  0  0  0  0  0  0  0  0  0  0  0
   -5.0624   -0.2300   13.1246 C   0  0  1  0  0  0  0  0  0  0  0  0
   -4.8270   -0.6390   14.1083 H   0  0  0  0  0  0  0  0  0  0  0  0
   -6.0566    0.2151   13.1688 H   0  0  0  0  0  0  0  0  0  0  0  0
   -5.0880   -1.0530   12.4095 H   0  0  0  0  0  0  0  0  0  0  0  0
  1  2  1  0
  1  6  2  0
  2  3  2  0
  3  4  1  0
  3 10  1  0
  4  5  2  0
  4 16  1  0
  5  6  1  0
  6 19  1  0
  7  8  1  0
  7 12  2  0
  7 20  1  0
  8  9  2  0
  8 35  1  0
  9 10  1  0
  9 21  1  0
 10 11  2  0
 11 12  1  0
 11 22  1  0
 12 31  1  0
 13 14  1  0
 13 18  2  0
 13 23  1  0
 14 15  2  0
 14 24  1  0
 15 16  1  0
 15 25  1  0
 16 17  2  0
 17 18  1  0
 17 26  1  0
 18 27  1  0
 19 28  1  0
 19 29  1  0
 20 30  1  0
 31 32  1  6
 31 33  1  0
 31 34  1  0
 35 36  1  1
 35 37  1  0
 35 38  1  0
M  END
