4h
     RDKit          3D

 36 38  0  0  1  0  0  0  0  0999 V2000
   -0.4097    3.1774   16.2323 N   0  0  0  0  0  0  0  0  0  0  0  0
   -1.3205    2.8726   15.2951 N   0  0  0  0  0  0  0  0  0  0  0  0
   -0.9375    2.5696   14.0204 C   0  0  0  0  0  0  0  0  0  0  0  0
    0.4431    2.5080   13.7067 C   0  0  0  0  0  0  0  0  0  0  0  0
    1.3659    2.8488   14.6518 N   0  0  0  0  0  0  0  0  0  0  0  0
    0.8938    3.1818   15.8731 C   0  0  0  0  0  0  0  0  0  0  0  0
   -4.2031    1.9475   11.2453 N   0  0  0  0  0  0  0  0  0  0  0  0
   -3.0919    2.6391   10.8847 C   0  0  0  0  0  0  0  0  0  0  0  0
   -2.0255    2.8693   11.7581 C   0  0  0  0  0  0  0  0  0  0  0  0
   -2.0703    2.3571   13.0630 C   0  0  0  0  0  0  0  0  0  0  0  0
   -3.2262    1.6547   13.4414 C   0  0  0  0  0  0  0  0  0  0  0  0
   -4.2568    1.4661   12.5147 C   0  0  0  0  0  0  0  0  0  0  0  0
    2.1087    1.2425    9.9434 C   0  0  0  0  0  0  0  0  0  0  0  0
    2.7379    2.2387   10.6791 C   0  0  0  0  0  0  0  0  0  0  0  0
    2.1964    2.6394   11.8967 C   0  0  0  0  0  0  0  0  0  0  0  0
    1.0265    2.0547   12.4014 C   0  0  0  0  0  0  0  0  0  0  0  0
    0.4371    1.0202   11.6608 C   0  0  0  0  0  0  0  0  0  0  0  0
    0.9557    0.6399   10.4281 C   0  0  0  0  0  0  0  0  0  0  0  0
    1.8135    3.5863   16.8279 N   0  0  0  0  0  0  0  0  0  0  0  0
   -5.5099    0.6990   12.8937 C   0  0  1  0  0  0  0  0  0  0  0  0
   -3.0641    3.1646    9.4622 C   0  0  2  0  0  0  0  0  0  0  0  0
   -1.1703    3.4380   11.4274 H   0  0  0  0  0  0  0  0  0  0  0  0
   -3.3185    1.2405   14.4338 H   0  0  0  0  0  0  0  0  0  0  0  0
    2.6130    0.8638    8.7486 F   0  0  0  0  0  0  0  0  0  0  0  0
    3.6319    2.7109   10.2996 H   0  0  0  0  0  0  0  0  0  0  0  0
    2.6856    3.4361   12.4367 H   0  0  0  0  0  0  0  0  0  0  0  0
   -0.4432    0.5129   12.0309 H   0  0  0  0  0  0  0  0  0  0  0  0
    0.4773   -0.1432    9.8571 H   0  0  0  0  0  0  0  0  0  0  0  0
    2.7450    3.8553   16.5267 H   0  0  0  0  0  0  0  0  0  0  0  0
    1.4762    3.8393   17.7574 H   0  0  0  0  0  0  0  0  0  0  0  0
   -5.2640   -0.1625   13.5172 H   0  0  0  0  0  0  0  0  0  0  0  0
   -6.1861    1.3425   13.4542 H   0  0  0  0  0  0  0  0  0  0  0  0
   -6.0383    0.3296   12.0137 H   0  0  0  0  0  0  0  0  0  0  0  0
   -2.2063    3.8180    9.2944 H   0  0  0  0  0  0  0  0  0  0  0  0
   -3.9640    3.7421    9.2429 H   0  0  0  0  0  0  0  0  0  0  0  0
   -2.9983    2.3336    8.7591 H   0  0  0  0  0  0  0  0  0  0  0  0
  1  2  1  0
  1  6  2  0
  2  3  2  0
  3  4  1  0
  3 10  1  0
  4  5  2  0
  4 16  1  0
  5  6  1  0
  6 19  1  0
  7  8  1  0
  7 12  2  0
  8  9  2  0
  8 21  1  0
  9 10  1  0
  9 22  1  0
 10 11  2  0
 11 12  1  0
 11 23  1  0
 12 20  1  0
 13 14  1  0
 13 18  2  0
 13 24  1  0
 14 15  2  0
 14 25  1  0
 15 16  1  0
 15 26  1  0
 16 17  2  0
 17 18  1  0
 17 27  1  0
 18 28  1  0
 19 29  1  0
 19 30  1  0
 20 31  1  1
 20 32  1  0
 20 33  1  0
 21 34  1  1
 21 35  1  0
 21 36  1  0
M  END
