4o
     RDKit          3D

 32 34  0  0  1  0  0  0  0  0999 V2000
   -0.4016    3.2248   16.2125 N   0  0  0  0  0  0  0  0  0  0  0  0
   -1.3149    2.8591   15.2970 N   0  0  0  0  0  0  0  0  0  0  0  0
   -0.9134    2.4630   14.0528 C   0  0  0  0  0  0  0  0  0  0  0  0
    0.4698    2.4291   13.7357 C   0  0  0  0  0  0  0  0  0  0  0  0
    1.3795    2.8070   14.6771 N   0  0  0  0  0  0  0  0  0  0  0  0
    0.8844    3.1788   15.8561 C   0  0  0  0  0  0  0  0  0  0  0  0
   -4.1668    1.4537   11.4339 C   0  0  0  0  0  0  0  0  0  0  0  0
   -4.0451    0.8261   12.6730 C   0  0  0  0  0  0  0  0  0  0  0  0
   -2.9867    1.1626   13.5212 C   0  0  0  0  0  0  0  0  0  0  0  0
   -2.0368    2.1221   13.1368 C   0  0  0  0  0  0  0  0  0  0  0  0
   -2.1729    2.7466   11.8876 C   0  0  0  0  0  0  0  0  0  0  0  0
   -3.2319    2.4124   11.0352 C   0  0  0  0  0  0  0  0  0  0  0  0
    2.2099    1.2926    9.9513 C   0  0  0  0  0  0  0  0  0  0  0  0
    1.0701    0.6340   10.4148 C   0  0  0  0  0  0  0  0  0  0  0  0
    0.5133    0.9882   11.6470 C   0  0  0  0  0  0  0  0  0  0  0  0
    1.0704    2.0169   12.4255 C   0  0  0  0  0  0  0  0  0  0  0  0
    2.2311    2.6529   11.9454 C   0  0  0  0  0  0  0  0  0  0  0  0
    2.7979    2.2974   10.7195 C   0  0  0  0  0  0  0  0  0  0  0  0
    1.7892    3.5778   16.7988 N   0  0  0  0  0  0  0  0  0  0  0  0
   -5.2111    1.1256   10.6114 O   0  0  0  0  0  0  0  0  0  0  0  0
   -4.7754    0.0900   12.9731 H   0  0  0  0  0  0  0  0  0  0  0  0
   -2.9074    0.6775   14.4836 H   0  0  0  0  0  0  0  0  0  0  0  0
   -1.4523    3.4890   11.5755 H   0  0  0  0  0  0  0  0  0  0  0  0
   -3.3184    2.9025   10.0781 H   0  0  0  0  0  0  0  0  0  0  0  0
    2.6448    1.0154    9.0015 H   0  0  0  0  0  0  0  0  0  0  0  0
    0.6226   -0.1555    9.8282 H   0  0  0  0  0  0  0  0  0  0  0  0
   -0.3583    0.4516   11.9926 H   0  0  0  0  0  0  0  0  0  0  0  0
    2.6975    3.4347   12.5289 H   0  0  0  0  0  0  0  0  0  0  0  0
    3.6873    2.8010   10.3688 H   0  0  0  0  0  0  0  0  0  0  0  0
    2.7627    3.4109   16.6039 H   0  0  0  0  0  0  0  0  0  0  0  0
    1.4270    3.7589   17.7212 H   0  0  0  0  0  0  0  0  0  0  0  0
   -5.2203    1.6438    9.8058 H   0  0  0  0  0  0  0  0  0  0  0  0
  1  2  1  0
  1  6  2  0
  2  3  2  0
  3  4  1  0
  3 10  1  0
  4  5  2  0
  4 16  1  0
  5  6  1  0
  6 19  1  0
  7  8  1  0
  7 12  2  0
  7 20  1  0
  8  9  2  0
  8 21  1  0
  9 10  1  0
  9 22  1  0
 10 11  2  0
 11 12  1  0
 11 23  1  0
 12 24  1  0
 13 14  1  0
 13 18  2  0
 13 25  1  0
 14 15  2  0
 14 26  1  0
 15 16  1  0
 15 27  1  0
 16 17  2  0
 17 18  1  0
 17 28  1  0
 18 29  1  0
 19 30  1  0
 19 31  1  0
 20 32  1  0
M  END
