4kU
     RDKit          3D

 36 38  0  0  1  0  0  0  0  0999 V2000
   -0.4209    3.1258   16.1605 N   0  0  0  0  0  0  0  0  0  0  0  0
   -1.2854    2.7792   15.1910 N   0  0  0  0  0  0  0  0  0  0  0  0
   -0.8434    2.4951   13.9294 C   0  0  0  0  0  0  0  0  0  0  0  0
    0.5467    2.5045   13.6605 C   0  0  0  0  0  0  0  0  0  0  0  0
    1.4136    2.9070   14.6320 N   0  0  0  0  0  0  0  0  0  0  0  0
    0.8921    3.2037   15.8425 C   0  0  0  0  0  0  0  0  0  0  0  0
   -3.9473    1.7470   11.0134 N   0  0  0  0  0  0  0  0  0  0  0  0
   -2.9017    2.5634   10.7304 C   0  0  0  0  0  0  0  0  0  0  0  0
   -1.8759    2.8174   11.6450 C   0  0  0  0  0  0  0  0  0  0  0  0
   -1.9254    2.2485   12.9254 C   0  0  0  0  0  0  0  0  0  0  0  0
   -3.0276    1.4384   13.2287 C   0  0  0  0  0  0  0  0  0  0  0  0
   -3.9947    1.1795   12.2495 C   0  0  0  0  0  0  0  0  0  0  0  0
    2.4246    1.2435    9.9913 C   0  0  0  0  0  0  0  0  0  0  0  0
    3.0129    2.2384   10.7633 C   0  0  0  0  0  0  0  0  0  0  0  0
    2.4012    2.6390   11.9470 C   0  0  0  0  0  0  0  0  0  0  0  0
    1.1985    2.0602   12.3808 C   0  0  0  0  0  0  0  0  0  0  0  0
    0.6485    1.0321   11.6010 C   0  0  0  0  0  0  0  0  0  0  0  0
    1.2438    0.6392   10.4066 C   0  0  0  0  0  0  0  0  0  0  0  0
    1.7745    3.6289   16.8274 N   0  0  0  0  0  0  0  0  0  0  0  0
   -5.1343    0.2022   12.5306 C   0  0  1  0  0  0  0  0  0  0  0  0
   -2.9101    3.1936    9.3500 C   0  0  2  0  0  0  0  0  0  0  0  0
   -1.0414    3.4391   11.3670 H   0  0  0  0  0  0  0  0  0  0  0  0
   -3.1071    0.9768   14.2016 H   0  0  0  0  0  0  0  0  0  0  0  0
    2.8897    0.9333    9.0669 H   0  0  0  0  0  0  0  0  0  0  0  0
    3.9315    2.7072   10.4394 H   0  0  0  0  0  0  0  0  0  0  0  0
    2.8596    3.4368   12.5122 H   0  0  0  0  0  0  0  0  0  0  0  0
   -0.2486    0.5202   11.9165 H   0  0  0  0  0  0  0  0  0  0  0  0
    0.7950   -0.1404    9.8087 H   0  0  0  0  0  0  0  0  0  0  0  0
    2.7147    3.8983   16.5528 H   0  0  0  0  0  0  0  0  0  0  0  0
    1.4247    3.8391   17.7616 H   0  0  0  0  0  0  0  0  0  0  0  0
   -6.0086    0.1155   11.5250 F   0  0  0  0  0  0  0  0  0  0  0  0
   -4.6249   -1.0111   12.7444 F   0  0  0  0  0  0  0  0  0  0  0  0
   -5.7863    0.5855   13.6267 F   0  0  0  0  0  0  0  0  0  0  0  0
   -2.0182    3.7987    9.1746 H   0  0  0  0  0  0  0  0  0  0  0  0
   -3.7800    3.8423    9.2363 H   0  0  0  0  0  0  0  0  0  0  0  0
   -2.9570    2.4246    8.5769 H   0  0  0  0  0  0  0  0  0  0  0  0
  1  2  1  0
  1  6  2  0
  2  3  2  0
  3  4  1  0
  3 10  1  0
  4  5  2  0
  4 16  1  0
  5  6  1  0
  6 19  1  0
  7  8  1  0
  7 12  2  0
  8  9  2  0
  8 21  1  0
  9 10  1  0
  9 22  1  0
 10 11  2  0
 11 12  1  0
 11 23  1  0
 12 20  1  0
 13 14  1  0
 13 18  2  0
 13 24  1  0
 14 15  2  0
 14 25  1  0
 15 16  1  0
 15 26  1  0
 16 17  2  0
 17 18  1  0
 17 27  1  0
 18 28  1  0
 19 29  1  0
 19 30  1  0
 20 31  1  6
 20 32  1  0
 20 33  1  0
 21 34  1  6
 21 35  1  0
 21 36  1  0
M  END
