intermediate_1
     RDKit          3D

 58 62  0  0  1  0  0  0  0  0999 V2000
   -4.2787   -3.0724   13.6807 C   0  0  2  0  0  0  0  0  0  0  0  0
   -3.8813   -2.3364   14.8299 O   0  0  0  0  0  0  0  0  0  0  0  0
   -2.5314   -2.0954   14.9063 C   0  0  0  0  0  0  0  0  0  0  0  0
   -1.7490   -2.8693   15.7651 C   0  0  0  0  0  0  0  0  0  0  0  0
   -0.3831   -2.6200   15.8873 C   0  0  0  0  0  0  0  0  0  0  0  0
    0.2219   -1.5876   15.1652 C   0  0  0  0  0  0  0  0  0  0  0  0
    1.5962   -1.3621   15.3695 N   0  0  0  0  0  0  0  0  0  0  0  0
    2.5463   -0.4805   14.8156 C   0  0  0  0  0  0  0  0  0  0  0  0
    2.2114    0.3554   13.7931 N   0  0  0  0  0  0  0  0  0  0  0  0
    3.1147    1.2420   13.2913 C   0  0  0  0  0  0  0  0  0  0  0  0
    4.4184    1.2945   13.7771 C   0  0  0  0  0  0  0  0  0  0  0  0
    4.7536    0.4706   14.8130 N   0  0  0  0  0  0  0  0  0  0  0  0
    5.9027    0.3496   15.5374 C   0  0  0  0  0  0  0  0  0  0  0  0
    5.5915   -0.5518   16.5460 C   0  0  0  0  0  0  0  0  0  0  0  0
    4.3980   -1.0906   16.4278 N   0  0  0  0  0  0  0  0  0  0  0  0
    3.8405   -0.4401   15.3736 C   0  0  0  0  0  0  0  0  0  0  0  0
    2.6408    2.1704   12.2217 C   0  0  0  0  0  0  0  0  0  0  0  0
    3.5325    2.6483   11.2493 C   0  0  0  0  0  0  0  0  0  0  0  0
    3.0977    3.4826   10.2235 C   0  0  0  0  0  0  0  0  0  0  0  0
    1.7568    3.8473   10.1460 C   0  0  0  0  0  0  0  0  0  0  0  0
    0.8435    3.4045   11.1092 C   0  0  0  0  0  0  0  0  0  0  0  0
    1.2993    2.5788   12.1484 C   0  0  0  0  0  0  0  0  0  0  0  0
   -0.6000    3.8059   11.0352 C   0  0  0  0  0  0  0  0  0  0  0  0
   -1.3110    3.7138   10.0388 O   0  0  0  0  0  0  0  0  0  0  0  0
   -1.0411    4.2867   12.1979 N   0  0  0  0  0  0  0  0  0  0  0  0
   -2.3963    4.7634   12.4588 C   0  0  0  0  0  0  0  0  0  0  0  0
   -2.6409    5.6071   13.5357 C   0  0  0  0  0  0  0  0  0  0  0  0
   -3.9309    6.0610   13.7840 C   0  0  0  0  0  0  0  0  0  0  0  0
   -4.9762    5.6709   12.9554 C   0  0  0  0  0  0  0  0  0  0  0  0
   -4.7317    4.8272   11.8784 C   0  0  0  0  0  0  0  0  0  0  0  0
   -3.4417    4.3734   11.6301 C   0  0  0  0  0  0  0  0  0  0  0  0
   -0.5726   -0.8180   14.3041 C   0  0  0  0  0  0  0  0  0  0  0  0
   -1.9478   -1.0608   14.1631 C   0  0  0  0  0  0  0  0  0  0  0  0
   -2.7138   -0.2780   13.3234 O   0  0  0  0  0  0  0  0  0  0  0  0
   -2.0197    0.7056   12.6488 C   0  0  2  0  0  0  0  0  0  0  0  0
   -3.7806   -4.0422   13.6455 H   0  0  0  0  0  0  0  0  0  0  0  0
   -4.0487   -2.5287   12.7634 H   0  0  0  0  0  0  0  0  0  0  0  0
   -5.3543   -3.2457   13.7089 H   0  0  0  0  0  0  0  0  0  0  0  0
   -2.2065   -3.6586   16.3424 H   0  0  0  0  0  0  0  0  0  0  0  0
    0.1991   -3.2290   16.5628 H   0  0  0  0  0  0  0  0  0  0  0  0
    2.0335   -1.9082   16.1007 H   0  0  0  0  0  0  0  0  0  0  0  0
    5.1671    1.9938   13.4304 H   0  0  0  0  0  0  0  0  0  0  0  0
    6.7788    0.9382   15.3200 H   0  0  0  0  0  0  0  0  0  0  0  0
    6.2362   -0.8869   17.3480 H   0  0  0  0  0  0  0  0  0  0  0  0
    4.5682    2.3463   11.2685 H   0  0  0  0  0  0  0  0  0  0  0  0
    3.7959    3.8310    9.4762 H   0  0  0  0  0  0  0  0  0  0  0  0
    1.4193    4.4842    9.3408 H   0  0  0  0  0  0  0  0  0  0  0  0
    0.5971    2.2298   12.8918 H   0  0  0  0  0  0  0  0  0  0  0  0
   -0.4920    4.3799   13.0403 H   0  0  0  0  0  0  0  0  0  0  0  0
   -1.8269    5.9108   14.1808 H   0  0  0  0  0  0  0  0  0  0  0  0
   -4.1213    6.7179   14.6225 H   0  0  0  0  0  0  0  0  0  0  0  0
   -5.5456    4.5235   11.2333 H   0  0  0  0  0  0  0  0  0  0  0  0
   -3.2513    3.7164   10.7916 H   0  0  0  0  0  0  0  0  0  0  0  0
   -0.1636   -0.0052   13.7300 H   0  0  0  0  0  0  0  0  0  0  0  0
   -2.7073    1.2663   12.0155 H   0  0  0  0  0  0  0  0  0  0  0  0
   -1.2483    0.2469   12.0303 H   0  0  0  0  0  0  0  0  0  0  0  0
   -1.5553    1.3808   13.3676 H   0  0  0  0  0  0  0  0  0  0  0  0
   -5.9786    6.0235   13.1483 H   0  0  0  0  0  0  0  0  0  0  0  0
  1  2  1  0
  1 36  1  6
  1 37  1  0
  1 38  1  0
  2  3  1  0
  3  4  2  0
  3 33  1  0
  4  5  1  0
  4 39  1  0
  5  6  2  0
  5 40  1  0
  6  7  1  0
  6 32  1  0
  7  8  1  0
  7 41  1  0
  8  9  2  0
  8 16  1  0
  9 10  1  0
 10 11  2  0
 10 17  1  0
 11 12  1  0
 11 42  1  0
 12 13  1  0
 12 16  1  0
 13 14  2  0
 13 43  1  0
 14 15  1  0
 14 44  1  0
 15 16  2  0
 17 18  2  0
 17 22  1  0
 18 19  1  0
 18 45  1  0
 19 20  2  0
 19 46  1  0
 20 21  1  0
 20 47  1  0
 21 22  2  0
 21 23  1  0
 22 48  1  0
 23 24  2  0
 23 25  1  0
 25 26  1  0
 25 49  1  0
 26 27  2  0
 26 31  1  0
 27 28  1  0
 27 50  1  0
 28 29  2  0
 28 51  1  0
 29 30  1  0
 29 58  1  0
 30 31  2  0
 30 52  1  0
 31 53  1  0
 32 33  2  0
 32 54  1  0
 33 34  1  0
 34 35  1  0
 35 55  1  6
 35 56  1  0
 35 57  1  0
M  END
