docked CHEMBL3264994
     RDKit          3D

 64 68  0  0  1  0  0  0  0  0999 V2000
   -4.7888   -1.8114   15.8536 C   0  0  2  0  0  0  0  0  0  0  0  0
   -3.9916   -2.5286   14.7321 C   0  0  1  0  0  0  0  0  0  0  0  0
   -4.2596   -4.0576   14.8437 C   0  0  1  0  0  0  0  0  0  0  0  0
   -4.5196   -2.1244   13.3230 C   0  0  1  0  0  0  0  0  0  0  0  0
   -2.4959   -2.1968   14.9187 C   0  0  0  0  0  0  0  0  0  0  0  0
   -1.8604   -1.2234   14.1419 C   0  0  0  0  0  0  0  0  0  0  0  0
   -0.5178   -0.9609   14.3413 C   0  0  0  0  0  0  0  0  0  0  0  0
    0.2217   -1.6393   15.3112 C   0  0  0  0  0  0  0  0  0  0  0  0
    1.5881   -1.3299   15.4914 N   0  0  0  0  0  0  0  0  0  0  0  0
    2.5087   -0.4386   14.8694 C   0  0  0  0  0  0  0  0  0  0  0  0
    2.1751    0.4023   13.8489 N   0  0  0  0  0  0  0  0  0  0  0  0
    3.0900    1.2636   13.3028 C   0  0  0  0  0  0  0  0  0  0  0  0
    4.3868    1.3307   13.7711 C   0  0  0  0  0  0  0  0  0  0  0  0
    4.7202    0.4924   14.7677 N   0  0  0  0  0  0  0  0  0  0  0  0
    5.8708    0.3644   15.4473 C   0  0  0  0  0  0  0  0  0  0  0  0
    5.6261   -0.5796   16.4227 C   0  0  0  0  0  0  0  0  0  0  0  0
    4.4128   -1.0712   16.3490 N   0  0  0  0  0  0  0  0  0  0  0  0
    3.8204   -0.3997   15.3466 C   0  0  0  0  0  0  0  0  0  0  0  0
    2.6455    2.1560   12.2092 C   0  0  0  0  0  0  0  0  0  0  0  0
    3.5419    2.6615   11.2553 C   0  0  0  0  0  0  0  0  0  0  0  0
    3.1039    3.5014   10.2388 C   0  0  0  0  0  0  0  0  0  0  0  0
    1.7624    3.8554   10.1667 C   0  0  0  0  0  0  0  0  0  0  0  0
    0.8620    3.3499   11.1034 C   0  0  0  0  0  0  0  0  0  0  0  0
   -0.4735    3.7465   11.0308 N   0  0  0  0  0  0  0  0  0  0  0  0
   -1.5563    2.9779   11.2904 C   0  0  0  0  0  0  0  0  0  0  0  0
   -1.5734    1.7419   11.2795 O   0  0  0  0  0  0  0  0  0  0  0  0
   -2.7947    3.7681   11.6356 C   0  0  0  0  0  0  0  0  0  0  0  0
   -2.7421    4.7331   12.6577 C   0  0  0  0  0  0  0  0  0  0  0  0
   -3.8886    5.4563   12.9960 C   0  0  0  0  0  0  0  0  0  0  0  0
   -5.1020    5.2459   12.3086 C   0  0  0  0  0  0  0  0  0  0  0  0
   -5.1392    4.2881   11.2731 C   0  0  0  0  0  0  0  0  0  0  0  0
   -4.0001    3.5433   10.9479 C   0  0  0  0  0  0  0  0  0  0  0  0
   -6.3461    6.0021   12.7000 C   0  0  0  0  0  0  0  0  0  0  0  0
   -7.2440    6.1647   11.8425 O   0  0  0  0  0  0  0  0  0  0  0  0
   -6.4222    6.4050   13.8858 O   0  0  0  0  0  0  0  0  0  0  0  0
    1.3073    2.5176   12.1294 C   0  0  0  0  0  0  0  0  0  0  0  0
   -0.4100   -2.6160   16.0898 C   0  0  0  0  0  0  0  0  0  0  0  0
   -1.7632   -2.8768   15.8974 C   0  0  0  0  0  0  0  0  0  0  0  0
   -5.8653   -1.9403   15.7316 H   0  0  0  0  0  0  0  0  0  0  0  0
   -4.5839   -0.7420   15.8870 H   0  0  0  0  0  0  0  0  0  0  0  0
   -4.5309   -2.2264   16.8321 H   0  0  0  0  0  0  0  0  0  0  0  0
   -3.6851   -4.6160   14.1061 H   0  0  0  0  0  0  0  0  0  0  0  0
   -4.0142   -4.4535   15.8286 H   0  0  0  0  0  0  0  0  0  0  0  0
   -5.3115   -4.2885   14.6654 H   0  0  0  0  0  0  0  0  0  0  0  0
   -3.9983   -2.6791   12.5382 H   0  0  0  0  0  0  0  0  0  0  0  0
   -5.5771   -2.3607   13.2193 H   0  0  0  0  0  0  0  0  0  0  0  0
   -4.4175   -1.0665   13.0949 H   0  0  0  0  0  0  0  0  0  0  0  0
   -2.3926   -0.6669   13.3848 H   0  0  0  0  0  0  0  0  0  0  0  0
   -0.0609   -0.2208   13.7188 H   0  0  0  0  0  0  0  0  0  0  0  0
    2.0316   -1.8879   16.2098 H   0  0  0  0  0  0  0  0  0  0  0  0
    5.1464    2.0006   13.4132 H   0  0  0  0  0  0  0  0  0  0  0  0
    6.7483    0.9606   15.2187 H   0  0  0  0  0  0  0  0  0  0  0  0
    6.2935   -0.9008   17.2038 H   0  0  0  0  0  0  0  0  0  0  0  0
    4.5849    2.3912   11.2860 H   0  0  0  0  0  0  0  0  0  0  0  0
    3.8032    3.8820    9.5137 H   0  0  0  0  0  0  0  0  0  0  0  0
    1.4313    4.5158    9.3801 H   0  0  0  0  0  0  0  0  0  0  0  0
   -0.6373    4.7265   10.8577 H   0  0  0  0  0  0  0  0  0  0  0  0
   -1.8236    4.9140   13.2042 H   0  0  0  0  0  0  0  0  0  0  0  0
   -3.8344    6.1772   13.8009 H   0  0  0  0  0  0  0  0  0  0  0  0
   -6.0603    4.1082   10.7361 H   0  0  0  0  0  0  0  0  0  0  0  0
   -4.0597    2.8076   10.1579 H   0  0  0  0  0  0  0  0  0  0  0  0
    0.6179    2.1498   12.8746 H   0  0  0  0  0  0  0  0  0  0  0  0
    0.1451   -3.1660   16.8311 H   0  0  0  0  0  0  0  0  0  0  0  0
   -2.2374   -3.6232   16.5140 H   0  0  0  0  0  0  0  0  0  0  0  0
  1  2  1  0
  1 39  1  6
  1 40  1  0
  1 41  1  0
  2  3  1  0
  2  4  1  0
  2  5  1  6
  3 42  1  6
  3 43  1  0
  3 44  1  0
  4 45  1  6
  4 46  1  0
  4 47  1  0
  5  6  2  0
  5 38  1  0
  6  7  1  0
  6 48  1  0
  7  8  2  0
  7 49  1  0
  8  9  1  0
  8 37  1  0
  9 10  1  0
  9 50  1  0
 10 11  2  0
 10 18  1  0
 11 12  1  0
 12 13  2  0
 12 19  1  0
 13 14  1  0
 13 51  1  0
 14 15  1  0
 14 18  1  0
 15 16  2  0
 15 52  1  0
 16 17  1  0
 16 53  1  0
 17 18  2  0
 19 20  2  0
 19 36  1  0
 20 21  1  0
 20 54  1  0
 21 22  2  0
 21 55  1  0
 22 23  1  0
 22 56  1  0
 23 24  1  0
 23 36  2  0
 24 25  1  0
 24 57  1  0
 25 26  2  0
 25 27  1  0
 27 28  2  0
 27 32  1  0
 28 29  1  0
 28 58  1  0
 29 30  2  0
 29 59  1  0
 30 31  1  0
 30 33  1  0
 31 32  2  0
 31 60  1  0
 32 61  1  0
 33 34  2  0
 33 35  1  0
 36 62  1  0
 37 38  2  0
 37 63  1  0
 38 64  1  0
M  CHG  1  35  -1
M  END
