CHEMBL3265013
     RDKit          3D

 51 54  0  0  1  0  0  0  0  0999 V2000
   -4.6741   -2.1614   15.8110 C   0  0  2  0  0  0  0  0  0  0  0  0
   -3.9261   -1.7937   14.7111 O   0  0  0  0  0  0  0  0  0  0  0  0
   -2.5599   -1.8024   14.9057 C   0  0  0  0  0  0  0  0  0  0  0  0
   -2.0362   -2.1641   16.1412 C   0  0  0  0  0  0  0  0  0  0  0  0
   -0.6602   -2.1729   16.3371 C   0  0  0  0  0  0  0  0  0  0  0  0
    0.1920   -1.8199   15.2975 C   0  0  0  0  0  0  0  0  0  0  0  0
    1.6374   -1.8290   15.5033 N   0  0  0  0  0  0  0  0  0  0  0  0
    2.4532   -0.7270   15.0017 C   0  0  0  0  0  0  0  0  0  0  0  0
    1.8852    0.1170   14.0906 N   0  0  0  0  0  0  0  0  0  0  0  0
    2.6193    1.1516   13.6057 C   0  0  0  0  0  0  0  0  0  0  0  0
    3.9327    1.3819   14.0057 C   0  0  0  0  0  0  0  0  0  0  0  0
    4.4870    0.5250   14.9208 N   0  0  0  0  0  0  0  0  0  0  0  0
    5.7239    0.4714   15.5092 C   0  0  0  0  0  0  0  0  0  0  0  0
    5.6915   -0.6338   16.3593 C   0  0  0  0  0  0  0  0  0  0  0  0
    4.5344   -1.2684   16.3445 N   0  0  0  0  0  0  0  0  0  0  0  0
    3.7746   -0.5631   15.4572 C   0  0  0  0  0  0  0  0  0  0  0  0
    1.9567    2.0539   12.6072 C   0  0  0  0  0  0  0  0  0  0  0  0
    2.6544    3.1307   12.0732 C   0  0  0  0  0  0  0  0  0  0  0  0
    2.0405    3.9667   11.1481 C   0  0  0  0  0  0  0  0  0  0  0  0
    0.7287    3.7259   10.7571 C   0  0  0  0  0  0  0  0  0  0  0  0
    0.0661    4.6281    9.7586 C   0  0  0  0  0  0  0  0  0  0  0  0
   -1.1082    4.5566    9.4085 O   0  0  0  0  0  0  0  0  0  0  0  0
    0.9107    5.5412    9.2783 N   0  0  0  0  0  0  0  0  0  0  0  0
    0.0309    2.6490   11.2911 C   0  0  0  0  0  0  0  0  0  0  0  0
   -1.3848    2.3891   10.8690 C   0  0  2  0  0  0  0  0  0  0  0  0
    0.6449    1.8131   12.2162 C   0  0  0  0  0  0  0  0  0  0  0  0
   -0.3318   -1.4581   14.0620 C   0  0  0  0  0  0  0  0  0  0  0  0
   -1.7077   -1.4493   13.8661 C   0  0  0  0  0  0  0  0  0  0  0  0
   -2.2277   -1.0901   12.6393 O   0  0  0  0  0  0  0  0  0  0  0  0
   -1.2899   -0.7594   11.6825 C   0  0  2  0  0  0  0  0  0  0  0  0
   -5.7339   -2.1234   15.5588 H   0  0  0  0  0  0  0  0  0  0  0  0
   -4.4716   -1.4758   16.6338 H   0  0  0  0  0  0  0  0  0  0  0  0
   -4.4077   -3.1754   16.1090 H   0  0  0  0  0  0  0  0  0  0  0  0
   -2.6996   -2.4390   16.9505 H   0  0  0  0  0  0  0  0  0  0  0  0
   -0.2525   -2.4545   17.2990 H   0  0  0  0  0  0  0  0  0  0  0  0
    2.0836   -2.6167   16.0048 H   0  0  0  0  0  0  0  0  0  0  0  0
    4.5480    2.1923   13.6436 H   0  0  0  0  0  0  0  0  0  0  0  0
    6.5032    1.1877   15.2931 H   0  0  0  0  0  0  0  0  0  0  0  0
    6.5144   -0.9672   16.9836 H   0  0  0  0  0  0  0  0  0  0  0  0
    3.6757    3.3182   12.3777 H   0  0  0  0  0  0  0  0  0  0  0  0
    2.5837    4.8051   10.7324 H   0  0  0  0  0  0  0  0  0  0  0  0
    0.6823    6.2501    8.5961 H   0  0  0  0  0  0  0  0  0  0  0  0
    1.8822    5.6356    9.5380 H   0  0  0  0  0  0  0  0  0  0  0  0
   -1.7635    1.5096   11.3897 H   0  0  0  0  0  0  0  0  0  0  0  0
   -1.4173    2.2166    9.7932 H   0  0  0  0  0  0  0  0  0  0  0  0
   -2.0023    3.2523   11.1174 H   0  0  0  0  0  0  0  0  0  0  0  0
    0.1017    0.9747   12.6319 H   0  0  0  0  0  0  0  0  0  0  0  0
    0.3317   -1.1832   13.2526 H   0  0  0  0  0  0  0  0  0  0  0  0
   -1.7959   -0.4921   10.7549 H   0  0  0  0  0  0  0  0  0  0  0  0
   -0.6345   -1.6124   11.5061 H   0  0  0  0  0  0  0  0  0  0  0  0
   -0.6984    0.0873   12.0309 H   0  0  0  0  0  0  0  0  0  0  0  0
  1  2  1  0
  1 31  1  6
  1 32  1  0
  1 33  1  0
  2  3  1  0
  3  4  2  0
  3 28  1  0
  4  5  1  0
  4 34  1  0
  5  6  2  0
  5 35  1  0
  6  7  1  0
  6 27  1  0
  7  8  1  0
  7 36  1  0
  8  9  2  0
  8 16  1  0
  9 10  1  0
 10 11  2  0
 10 17  1  0
 11 12  1  0
 11 37  1  0
 12 13  1  0
 12 16  1  0
 13 14  2  0
 13 38  1  0
 14 15  1  0
 14 39  1  0
 15 16  2  0
 17 18  2  0
 17 26  1  0
 18 19  1  0
 18 40  1  0
 19 20  2  0
 19 41  1  0
 20 21  1  0
 20 24  1  0
 21 22  2  0
 21 23  1  0
 23 42  1  0
 23 43  1  0
 24 25  1  0
 24 26  2  0
 25 44  1  1
 25 45  1  0
 25 46  1  0
 26 47  1  0
 27 28  2  0
 27 48  1  0
 28 29  1  0
 29 30  1  0
 30 49  1  6
 30 50  1  0
 30 51  1  0
M  END
