docked CHEMBL3264998
     RDKit          3D

 63 67  0  0  1  0  0  0  0  0999 V2000
   -4.3478   -2.7613   13.4633 C   0  0  1  0  0  0  0  0  0  0  0  0
   -3.8477   -2.3824   14.7476 O   0  0  0  0  0  0  0  0  0  0  0  0
   -2.4977   -2.1748   14.9010 C   0  0  0  0  0  0  0  0  0  0  0  0
   -1.7812   -2.8715   15.8877 C   0  0  0  0  0  0  0  0  0  0  0  0
   -0.4188   -2.6269   16.0897 C   0  0  0  0  0  0  0  0  0  0  0  0
    0.2312   -1.6506   15.3040 C   0  0  0  0  0  0  0  0  0  0  0  0
    1.5997   -1.3582   15.4824 N   0  0  0  0  0  0  0  0  0  0  0  0
    2.5061   -0.4451   14.8714 C   0  0  0  0  0  0  0  0  0  0  0  0
    2.1763    0.4087   13.8608 N   0  0  0  0  0  0  0  0  0  0  0  0
    3.0794    1.2677   13.2984 C   0  0  0  0  0  0  0  0  0  0  0  0
    4.3801    1.3307   13.7654 C   0  0  0  0  0  0  0  0  0  0  0  0
    4.7098    0.4988   14.7731 N   0  0  0  0  0  0  0  0  0  0  0  0
    5.8583    0.3744   15.4516 C   0  0  0  0  0  0  0  0  0  0  0  0
    5.6312   -0.5715   16.4226 C   0  0  0  0  0  0  0  0  0  0  0  0
    4.4174   -1.0766   16.3505 N   0  0  0  0  0  0  0  0  0  0  0  0
    3.8208   -0.3988   15.3509 C   0  0  0  0  0  0  0  0  0  0  0  0
    2.6389    2.1566   12.2045 C   0  0  0  0  0  0  0  0  0  0  0  0
    3.5491    2.6605   11.2525 C   0  0  0  0  0  0  0  0  0  0  0  0
    3.1150    3.5063   10.2375 C   0  0  0  0  0  0  0  0  0  0  0  0
    1.7772    3.8539   10.1546 C   0  0  0  0  0  0  0  0  0  0  0  0
    0.8905    3.3720   11.1062 C   0  0  0  0  0  0  0  0  0  0  0  0
    1.3001    2.5358   12.1351 C   0  0  0  0  0  0  0  0  0  0  0  0
   -0.5534    3.6951   10.9759 C   0  0  0  0  0  0  0  0  0  0  0  0
   -1.0734    3.5544    9.8683 O   0  0  0  0  0  0  0  0  0  0  0  0
   -1.1787    4.1133   12.1056 N   0  0  0  0  0  0  0  0  0  0  0  0
   -2.5256    4.4760   12.2298 C   0  0  0  0  0  0  0  0  0  0  0  0
   -3.5221    4.0631   11.3258 C   0  0  0  0  0  0  0  0  0  0  0  0
   -4.8216    4.5263   11.4514 C   0  0  0  0  0  0  0  0  0  0  0  0
   -5.1392    5.3680   12.5338 C   0  0  0  0  0  0  0  0  0  0  0  0
   -6.5547    5.8961   12.7292 C   0  0  2  0  0  0  0  0  0  0  0  0
   -7.2499    6.3917   11.4498 C   0  0  0  0  0  0  0  0  0  0  0  0
   -7.2528    5.6203   10.4568 O   0  0  0  0  0  0  0  0  0  0  0  0
   -7.7859    7.5265   11.5041 O   0  0  0  0  0  0  0  0  0  0  0  0
   -4.1582    5.7646   13.4491 C   0  0  0  0  0  0  0  0  0  0  0  0
   -2.8476    5.3378   13.2788 C   0  0  0  0  0  0  0  0  0  0  0  0
   -0.5048   -0.9835   14.3179 C   0  0  0  0  0  0  0  0  0  0  0  0
   -1.8611   -1.2050   14.1153 C   0  0  0  0  0  0  0  0  0  0  0  0
   -2.6076   -0.5361   13.1523 O   0  0  0  0  0  0  0  0  0  0  0  0
   -2.1751    0.5707   12.3687 C   0  0  1  0  0  0  0  0  0  0  0  0
   -5.3702   -3.1218   13.5795 H   0  0  0  0  0  0  0  0  0  0  0  0
   -4.3842   -1.9260   12.7641 H   0  0  0  0  0  0  0  0  0  0  0  0
   -3.7551   -3.5686   13.0312 H   0  0  0  0  0  0  0  0  0  0  0  0
   -2.2795   -3.6078   16.4939 H   0  0  0  0  0  0  0  0  0  0  0  0
    0.1096   -3.1944   16.8335 H   0  0  0  0  0  0  0  0  0  0  0  0
    2.0548   -1.9089   16.2067 H   0  0  0  0  0  0  0  0  0  0  0  0
    5.1331    2.0271   13.4162 H   0  0  0  0  0  0  0  0  0  0  0  0
    6.7114    0.9754   15.2211 H   0  0  0  0  0  0  0  0  0  0  0  0
    6.3549   -0.8302   17.1984 H   0  0  0  0  0  0  0  0  0  0  0  0
    4.5918    2.3970   11.2976 H   0  0  0  0  0  0  0  0  0  0  0  0
    3.8225    3.8789    9.5039 H   0  0  0  0  0  0  0  0  0  0  0  0
    1.4384    4.4933    9.3546 H   0  0  0  0  0  0  0  0  0  0  0  0
    0.5897    2.1428   12.8481 H   0  0  0  0  0  0  0  0  0  0  0  0
   -0.5951    4.2899   12.9184 H   0  0  0  0  0  0  0  0  0  0  0  0
   -3.3107    3.3740   10.5190 H   0  0  0  0  0  0  0  0  0  0  0  0
   -5.5379    4.2268   10.7185 H   0  0  0  0  0  0  0  0  0  0  0  0
   -6.4983    6.7672   13.3944 H   0  0  0  0  0  0  0  0  0  0  0  0
   -7.1910    5.1844   13.2467 H   0  0  0  0  0  0  0  0  0  0  0  0
   -4.4216    6.4197   14.2738 H   0  0  0  0  0  0  0  0  0  0  0  0
   -2.1180    5.6607   13.9932 H   0  0  0  0  0  0  0  0  0  0  0  0
   -0.0479   -0.2343   13.7040 H   0  0  0  0  0  0  0  0  0  0  0  0
   -2.9584    0.8784   11.6664 H   0  0  0  0  0  0  0  0  0  0  0  0
   -1.9145    1.4226   12.9937 H   0  0  0  0  0  0  0  0  0  0  0  0
   -1.2886    0.2946   11.7795 H   0  0  0  0  0  0  0  0  0  0  0  0
  1  2  1  0
  1 40  1  1
  1 41  1  0
  1 42  1  0
  2  3  1  0
  3  4  2  0
  3 37  1  0
  4  5  1  0
  4 43  1  0
  5  6  2  0
  5 44  1  0
  6  7  1  0
  6 36  1  0
  7  8  1  0
  7 45  1  0
  8  9  2  0
  8 16  1  0
  9 10  1  0
 10 11  2  0
 10 17  1  0
 11 12  1  0
 11 46  1  0
 12 13  1  0
 12 16  1  0
 13 14  2  0
 13 47  1  0
 14 15  1  0
 14 48  1  0
 15 16  2  0
 17 18  2  0
 17 22  1  0
 18 19  1  0
 18 49  1  0
 19 20  2  0
 19 50  1  0
 20 21  1  0
 20 51  1  0
 21 22  2  0
 21 23  1  0
 22 52  1  0
 23 24  2  0
 23 25  1  0
 25 26  1  0
 25 53  1  0
 26 27  2  0
 26 35  1  0
 27 28  1  0
 27 54  1  0
 28 29  2  0
 28 55  1  0
 29 30  1  0
 29 34  1  0
 30 31  1  0
 30 56  1  1
 30 57  1  0
 31 32  2  0
 31 33  1  0
 34 35  2  0
 34 58  1  0
 35 59  1  0
 36 37  2  0
 36 60  1  0
 37 38  1  0
 38 39  1  0
 39 61  1  6
 39 62  1  0
 39 63  1  0
M  CHG  1  33  -1
M  END
