CHEMBL3265014
     RDKit          3D

 52 55  0  0  1  0  0  0  0  0999 V2000
   -4.6839   -2.1048   15.7915 C   0  0  2  0  0  0  0  0  0  0  0  0
   -3.9271   -1.7639   14.6890 O   0  0  0  0  0  0  0  0  0  0  0  0
   -2.5620   -1.7825   14.8902 C   0  0  0  0  0  0  0  0  0  0  0  0
   -2.0476   -2.1274   16.1344 C   0  0  0  0  0  0  0  0  0  0  0  0
   -0.6728   -2.1461   16.3371 C   0  0  0  0  0  0  0  0  0  0  0  0
    0.1877   -1.8199   15.2955 C   0  0  0  0  0  0  0  0  0  0  0  0
    1.6319   -1.8395   15.5084 N   0  0  0  0  0  0  0  0  0  0  0  0
    2.4577   -0.7416   15.0143 C   0  0  0  0  0  0  0  0  0  0  0  0
    1.9000    0.1091   14.1030 N   0  0  0  0  0  0  0  0  0  0  0  0
    2.6435    1.1401   13.6248 C   0  0  0  0  0  0  0  0  0  0  0  0
    3.9564    1.3603   14.0321 C   0  0  0  0  0  0  0  0  0  0  0  0
    4.5004    0.4969   14.9473 N   0  0  0  0  0  0  0  0  0  0  0  0
    5.7339    0.4330   15.5415 C   0  0  0  0  0  0  0  0  0  0  0  0
    5.6898   -0.6744   16.3881 C   0  0  0  0  0  0  0  0  0  0  0  0
    4.5285   -1.3011   16.3656 N   0  0  0  0  0  0  0  0  0  0  0  0
    3.7779   -0.5880   15.4767 C   0  0  0  0  0  0  0  0  0  0  0  0
    1.9919    2.0499   12.6259 C   0  0  0  0  0  0  0  0  0  0  0  0
    0.6805    1.8192   12.2276 C   0  0  0  0  0  0  0  0  0  0  0  0
    0.0768    2.6621   11.3021 C   0  0  0  0  0  0  0  0  0  0  0  0
    0.7845    3.7358   10.7748 C   0  0  0  0  0  0  0  0  0  0  0  0
    0.1330    4.6455    9.7759 C   0  0  0  0  0  0  0  0  0  0  0  0
   -1.0155    4.5324    9.3576 O   0  0  0  0  0  0  0  0  0  0  0  0
    0.9558    5.6169    9.3794 N   0  0  0  0  0  0  0  0  0  0  0  0
    2.0959    3.9665   11.1731 C   0  0  0  0  0  0  0  0  0  0  0  0
    2.7986    5.0326   10.6496 O   0  0  0  0  0  0  0  0  0  0  0  0
    4.0906    5.1650   11.1161 C   0  0  2  0  0  0  0  0  0  0  0  0
    2.6996    3.1236   12.0986 C   0  0  0  0  0  0  0  0  0  0  0  0
   -0.3267   -1.4750   14.0513 C   0  0  0  0  0  0  0  0  0  0  0  0
   -1.7016   -1.4563   13.8487 C   0  0  0  0  0  0  0  0  0  0  0  0
   -2.2123   -1.1138   12.6133 O   0  0  0  0  0  0  0  0  0  0  0  0
   -1.2668   -0.8093   11.6553 C   0  0  2  0  0  0  0  0  0  0  0  0
   -5.7420   -2.0609   15.5336 H   0  0  0  0  0  0  0  0  0  0  0  0
   -4.4785   -1.4067   16.6031 H   0  0  0  0  0  0  0  0  0  0  0  0
   -4.4288   -3.1160   16.1087 H   0  0  0  0  0  0  0  0  0  0  0  0
   -2.7175   -2.3814   16.9453 H   0  0  0  0  0  0  0  0  0  0  0  0
   -0.2723   -2.4147   17.3058 H   0  0  0  0  0  0  0  0  0  0  0  0
    2.0704   -2.6317   16.0097 H   0  0  0  0  0  0  0  0  0  0  0  0
    4.5789    2.1676   13.6755 H   0  0  0  0  0  0  0  0  0  0  0  0
    6.5191    1.1447   15.3315 H   0  0  0  0  0  0  0  0  0  0  0  0
    6.5074   -1.0154   17.0154 H   0  0  0  0  0  0  0  0  0  0  0  0
    0.1295    0.9833   12.6381 H   0  0  0  0  0  0  0  0  0  0  0  0
   -0.9442    2.4825   10.9920 H   0  0  0  0  0  0  0  0  0  0  0  0
    0.7297    6.3415    8.7131 H   0  0  0  0  0  0  0  0  0  0  0  0
    1.9057    5.7470    9.6969 H   0  0  0  0  0  0  0  0  0  0  0  0
    4.5595    6.0299   10.6468 H   0  0  0  0  0  0  0  0  0  0  0  0
    4.6586    4.2671   10.8728 H   0  0  0  0  0  0  0  0  0  0  0  0
    4.0742    5.3028   12.1972 H   0  0  0  0  0  0  0  0  0  0  0  0
    3.7206    3.3032   12.4087 H   0  0  0  0  0  0  0  0  0  0  0  0
    0.3432   -1.2210   13.2404 H   0  0  0  0  0  0  0  0  0  0  0  0
   -1.7659   -0.5534   10.7207 H   0  0  0  0  0  0  0  0  0  0  0  0
   -0.6191   -1.6715   11.4971 H   0  0  0  0  0  0  0  0  0  0  0  0
   -0.6687    0.0377   11.9915 H   0  0  0  0  0  0  0  0  0  0  0  0
  1  2  1  0
  1 32  1  6
  1 33  1  0
  1 34  1  0
  2  3  1  0
  3  4  2  0
  3 29  1  0
  4  5  1  0
  4 35  1  0
  5  6  2  0
  5 36  1  0
  6  7  1  0
  6 28  1  0
  7  8  1  0
  7 37  1  0
  8  9  2  0
  8 16  1  0
  9 10  1  0
 10 11  2  0
 10 17  1  0
 11 12  1  0
 11 38  1  0
 12 13  1  0
 12 16  1  0
 13 14  2  0
 13 39  1  0
 14 15  1  0
 14 40  1  0
 15 16  2  0
 17 18  2  0
 17 27  1  0
 18 19  1  0
 18 41  1  0
 19 20  2  0
 19 42  1  0
 20 21  1  0
 20 24  1  0
 21 22  2  0
 21 23  1  0
 23 43  1  0
 23 44  1  0
 24 25  1  0
 24 27  2  0
 25 26  1  0
 26 45  1  6
 26 46  1  0
 26 47  1  0
 27 48  1  0
 28 29  2  0
 28 49  1  0
 29 30  1  0
 30 31  1  0
 31 50  1  6
 31 51  1  0
 31 52  1  0
M  END
