CHEMBL3265011
     RDKit          3D

 51 54  0  0  1  0  0  0  0  0999 V2000
   -4.6695   -2.1636   15.8424 C   0  0  2  0  0  0  0  0  0  0  0  0
   -3.9261   -1.8203   14.7316 O   0  0  0  0  0  0  0  0  0  0  0  0
   -2.5592   -1.8219   14.9214 C   0  0  0  0  0  0  0  0  0  0  0  0
   -2.0304   -2.1538   16.1631 C   0  0  0  0  0  0  0  0  0  0  0  0
   -0.6537   -2.1554   16.3542 C   0  0  0  0  0  0  0  0  0  0  0  0
    0.1941   -1.8252   15.3036 C   0  0  0  0  0  0  0  0  0  0  0  0
    1.6402   -1.8269   15.5044 N   0  0  0  0  0  0  0  0  0  0  0  0
    2.4490   -0.7223   14.9971 C   0  0  0  0  0  0  0  0  0  0  0  0
    1.8738    0.1166   14.0858 N   0  0  0  0  0  0  0  0  0  0  0  0
    2.6012    1.1535   13.5956 C   0  0  0  0  0  0  0  0  0  0  0  0
    3.9149    1.3911   13.9904 C   0  0  0  0  0  0  0  0  0  0  0  0
    4.4765    0.5393   14.9058 N   0  0  0  0  0  0  0  0  0  0  0  0
    5.7157    0.4931   15.4900 C   0  0  0  0  0  0  0  0  0  0  0  0
    5.6916   -0.6099   16.3430 C   0  0  0  0  0  0  0  0  0  0  0  0
    4.5374   -1.2501   16.3339 N   0  0  0  0  0  0  0  0  0  0  0  0
    3.7712   -0.5508   15.4475 C   0  0  0  0  0  0  0  0  0  0  0  0
    1.9307    2.0499   12.5971 C   0  0  0  0  0  0  0  0  0  0  0  0
    0.6161    1.8067   12.2175 C   0  0  0  0  0  0  0  0  0  0  0  0
   -0.0051    2.6373   11.2924 C   0  0  0  0  0  0  0  0  0  0  0  0
    0.6883    3.7111   10.7469 C   0  0  0  0  0  0  0  0  0  0  0  0
    2.0030    3.9544   11.1265 C   0  0  0  0  0  0  0  0  0  0  0  0
    2.6242    3.1238   12.0516 C   0  0  0  0  0  0  0  0  0  0  0  0
    4.0431    3.3863   12.4613 C   0  0  2  0  0  0  0  0  0  0  0  0
   -1.4240    2.3748   10.8827 C   0  0  0  0  0  0  0  0  0  0  0  0
   -2.0120    1.3048   11.0097 O   0  0  0  0  0  0  0  0  0  0  0  0
   -1.9948    3.4562   10.3513 N   0  0  0  0  0  0  0  0  0  0  0  0
   -0.3347   -1.4933   14.0619 C   0  0  0  0  0  0  0  0  0  0  0  0
   -1.7114   -1.4917   13.8708 C   0  0  0  0  0  0  0  0  0  0  0  0
   -2.2364   -1.1622   12.6379 O   0  0  0  0  0  0  0  0  0  0  0  0
   -1.3026   -0.8522   11.6702 C   0  0  2  0  0  0  0  0  0  0  0  0
   -5.7302   -2.1334   15.5933 H   0  0  0  0  0  0  0  0  0  0  0  0
   -4.4654   -1.4586   16.6483 H   0  0  0  0  0  0  0  0  0  0  0  0
   -4.4001   -3.1699   16.1631 H   0  0  0  0  0  0  0  0  0  0  0  0
   -2.6904   -2.4108   16.9811 H   0  0  0  0  0  0  0  0  0  0  0  0
   -0.2420   -2.4137   17.3210 H   0  0  0  0  0  0  0  0  0  0  0  0
    2.0920   -2.6111   16.0063 H   0  0  0  0  0  0  0  0  0  0  0  0
    4.5249    2.2035   13.6241 H   0  0  0  0  0  0  0  0  0  0  0  0
    6.4908    1.2127   15.2693 H   0  0  0  0  0  0  0  0  0  0  0  0
    6.5182   -0.9378   16.9654 H   0  0  0  0  0  0  0  0  0  0  0  0
    0.0762    0.9706   12.6422 H   0  0  0  0  0  0  0  0  0  0  0  0
    0.2047    4.3578   10.0267 H   0  0  0  0  0  0  0  0  0  0  0  0
    2.5429    4.7904   10.7018 H   0  0  0  0  0  0  0  0  0  0  0  0
    4.4176    4.2629   11.9328 H   0  0  0  0  0  0  0  0  0  0  0  0
    4.6588    2.5218   12.2131 H   0  0  0  0  0  0  0  0  0  0  0  0
    4.0839    3.5650   13.5358 H   0  0  0  0  0  0  0  0  0  0  0  0
   -2.9428    3.5098   10.0069 H   0  0  0  0  0  0  0  0  0  0  0  0
   -1.5491    4.3542   10.2283 H   0  0  0  0  0  0  0  0  0  0  0  0
    0.3253   -1.2362   13.2439 H   0  0  0  0  0  0  0  0  0  0  0  0
   -1.8124   -0.6075   10.7384 H   0  0  0  0  0  0  0  0  0  0  0  0
   -0.6462   -1.7078   11.5114 H   0  0  0  0  0  0  0  0  0  0  0  0
   -0.7116    0.0035   11.9966 H   0  0  0  0  0  0  0  0  0  0  0  0
  1  2  1  0
  1 31  1  6
  1 32  1  0
  1 33  1  0
  2  3  1  0
  3  4  2  0
  3 28  1  0
  4  5  1  0
  4 34  1  0
  5  6  2  0
  5 35  1  0
  6  7  1  0
  6 27  1  0
  7  8  1  0
  7 36  1  0
  8  9  2  0
  8 16  1  0
  9 10  1  0
 10 11  2  0
 10 17  1  0
 11 12  1  0
 11 37  1  0
 12 13  1  0
 12 16  1  0
 13 14  2  0
 13 38  1  0
 14 15  1  0
 14 39  1  0
 15 16  2  0
 17 18  2  0
 17 22  1  0
 18 19  1  0
 18 40  1  0
 19 20  2  0
 19 24  1  0
 20 21  1  0
 20 41  1  0
 21 22  2  0
 21 42  1  0
 22 23  1  0
 23 43  1  6
 23 44  1  0
 23 45  1  0
 24 25  2  0
 24 26  1  0
 26 46  1  0
 26 47  1  0
 27 28  2  0
 27 48  1  0
 28 29  1  0
 29 30  1  0
 30 49  1  6
 30 50  1  0
 30 51  1  0
M  END
