CHEMBL3265015 flip
     RDKit          3D

 51 54  0  0  1  0  0  0  0  0999 V2000
   -4.6714   -2.1184   15.7592 C   0  0  2  0  0  0  0  0  0  0  0  0
   -3.9150   -1.7486   14.6659 O   0  0  0  0  0  0  0  0  0  0  0  0
   -2.5498   -1.7734   14.8659 C   0  0  0  0  0  0  0  0  0  0  0  0
   -2.0351   -2.1518   16.1002 C   0  0  0  0  0  0  0  0  0  0  0  0
   -0.6602   -2.1768   16.3017 C   0  0  0  0  0  0  0  0  0  0  0  0
    0.2001   -1.8233   15.2689 C   0  0  0  0  0  0  0  0  0  0  0  0
    1.6444   -1.8495   15.4806 N   0  0  0  0  0  0  0  0  0  0  0  0
    2.4706   -0.7392   15.0157 C   0  0  0  0  0  0  0  0  0  0  0  0
    1.9131    0.1359   14.1278 N   0  0  0  0  0  0  0  0  0  0  0  0
    2.6570    1.1789   13.6771 C   0  0  0  0  0  0  0  0  0  0  0  0
    3.9703    1.3873   14.0895 C   0  0  0  0  0  0  0  0  0  0  0  0
    4.5141    0.4993   14.9810 N   0  0  0  0  0  0  0  0  0  0  0  0
    5.7478    0.4188   15.5728 C   0  0  0  0  0  0  0  0  0  0  0  0
    5.7034   -0.7109   16.3894 C   0  0  0  0  0  0  0  0  0  0  0  0
    4.5417   -1.3360   16.3507 N   0  0  0  0  0  0  0  0  0  0  0  0
    3.7912   -0.5989   15.4815 C   0  0  0  0  0  0  0  0  0  0  0  0
    2.0056    2.1155   12.7032 C   0  0  0  0  0  0  0  0  0  0  0  0
    2.7760    3.0364   12.0032 C   0  0  0  0  0  0  0  0  0  0  0  0
    2.1725    3.9043   11.1008 C   0  0  0  0  0  0  0  0  0  0  0  0
    0.7985    3.8511   10.8985 C   0  0  0  0  0  0  0  0  0  0  0  0
    0.0281    2.9302   11.5984 C   0  0  0  0  0  0  0  0  0  0  0  0
    0.6316    2.0624   12.5008 C   0  0  0  0  0  0  0  0  0  0  0  0
   -0.1999    1.0685   13.2563 C   0  0  2  0  0  0  0  0  0  0  0  0
    0.1471    4.7877    9.9246 C   0  0  0  0  0  0  0  0  0  0  0  0
    0.6324    5.8404    9.5206 O   0  0  0  0  0  0  0  0  0  0  0  0
   -1.0477    4.3439    9.5332 N   0  0  0  0  0  0  0  0  0  0  0  0
   -0.3146   -1.4448   14.0346 C   0  0  0  0  0  0  0  0  0  0  0  0
   -1.6896   -1.4199   13.8331 C   0  0  0  0  0  0  0  0  0  0  0  0
   -2.2006   -1.0441   12.6076 O   0  0  0  0  0  0  0  0  0  0  0  0
   -1.2553   -0.7146   11.6577 C   0  0  2  0  0  0  0  0  0  0  0  0
   -5.7297   -2.0670   15.5030 H   0  0  0  0  0  0  0  0  0  0  0  0
   -4.4653   -1.4425   16.5891 H   0  0  0  0  0  0  0  0  0  0  0  0
   -4.4169   -3.1379   16.0491 H   0  0  0  0  0  0  0  0  0  0  0  0
   -2.7048   -2.4271   16.9043 H   0  0  0  0  0  0  0  0  0  0  0  0
   -0.2594   -2.4714   17.2627 H   0  0  0  0  0  0  0  0  0  0  0  0
    2.0826   -2.6551   15.9603 H   0  0  0  0  0  0  0  0  0  0  0  0
    4.5931    2.2035   13.7544 H   0  0  0  0  0  0  0  0  0  0  0  0
    6.5334    1.1354   15.3816 H   0  0  0  0  0  0  0  0  0  0  0  0
    6.5210   -1.0690   17.0070 H   0  0  0  0  0  0  0  0  0  0  0  0
    3.8458    3.0778   12.1608 H   0  0  0  0  0  0  0  0  0  0  0  0
    2.7723    4.6212   10.5559 H   0  0  0  0  0  0  0  0  0  0  0  0
   -1.0416    2.8889   11.4409 H   0  0  0  0  0  0  0  0  0  0  0  0
   -1.2455    1.1755   12.9676 H   0  0  0  0  0  0  0  0  0  0  0  0
   -0.0981    1.2485   14.3265 H   0  0  0  0  0  0  0  0  0  0  0  0
    0.1398    0.0592   13.0236 H   0  0  0  0  0  0  0  0  0  0  0  0
   -1.6628    4.8114    8.8826 H   0  0  0  0  0  0  0  0  0  0  0  0
   -1.4838    3.4859    9.8395 H   0  0  0  0  0  0  0  0  0  0  0  0
    0.3551   -1.1696   13.2305 H   0  0  0  0  0  0  0  0  0  0  0  0
   -1.7546   -0.4335   10.7305 H   0  0  0  0  0  0  0  0  0  0  0  0
   -0.6082   -1.5727   11.4762 H   0  0  0  0  0  0  0  0  0  0  0  0
   -0.6565    0.1227   12.0162 H   0  0  0  0  0  0  0  0  0  0  0  0
  1  2  1  0
  1 31  1  6
  1 32  1  0
  1 33  1  0
  2  3  1  0
  3  4  2  0
  3 28  1  0
  4  5  1  0
  4 34  1  0
  5  6  2  0
  5 35  1  0
  6  7  1  0
  6 27  1  0
  7  8  1  0
  7 36  1  0
  8  9  2  0
  8 16  1  0
  9 10  1  0
 10 11  2  0
 10 17  1  0
 11 12  1  0
 11 37  1  0
 12 13  1  0
 12 16  1  0
 13 14  2  0
 13 38  1  0
 14 15  1  0
 14 39  1  0
 15 16  2  0
 17 18  2  0
 17 22  1  0
 18 19  1  0
 18 40  1  0
 19 20  2  0
 19 41  1  0
 20 21  1  0
 20 24  1  0
 21 22  2  0
 21 42  1  0
 22 23  1  0
 23 43  1  6
 23 44  1  0
 23 45  1  0
 24 25  2  0
 24 26  1  0
 26 46  1  0
 26 47  1  0
 27 28  2  0
 27 48  1  0
 28 29  1  0
 29 30  1  0
 30 49  1  6
 30 50  1  0
 30 51  1  0
M  END
