11c
     RDKit          3D

 50 52  0  0  1  0  0  0  0  0999 V2000
   20.0694   -4.2969    4.2305 F   0  0  0  0  0  0  0  0  0  0  0  0
   19.7038   -3.8878    2.9983 C   0  0  0  0  0  0  0  0  0  0  0  0
   18.6936   -2.9187    2.7962 C   0  0  0  0  0  0  0  0  0  0  0  0
   18.0331   -2.2056    3.8354 N   0  0  0  0  0  0  0  0  0  0  0  0
   18.4898   -1.9009    5.0593 C   0  0  0  0  0  0  0  0  0  0  0  0
   19.6368   -2.1126    5.4267 O   0  0  0  0  0  0  0  0  0  0  0  0
   17.5794   -1.2687    5.8185 N   0  0  0  0  0  0  0  0  0  0  0  0
   17.7958   -0.7578    7.1289 C   0  0  0  0  0  0  0  0  0  0  0  0
   17.0216    0.3101    7.5990 C   0  0  0  0  0  0  0  0  0  0  0  0
   15.8247    0.5283    7.0011 O   0  0  0  0  0  0  0  0  0  0  0  0
   15.3536    1.7921    6.8972 C   0  0  0  0  0  0  0  0  0  0  0  0
   15.8561    2.5502    5.8504 C   0  0  0  0  0  0  0  0  0  0  0  0
   15.3061    3.7978    5.5676 C   0  0  0  0  0  0  0  0  0  0  0  0
   15.8382    4.6084    4.3908 C   0  0  2  0  0  0  0  0  0  0  0  0
   16.1137    3.7418    3.1468 C   0  0  2  0  0  0  0  0  0  0  0  0
   17.1519    5.2740    4.8091 C   0  0  1  0  0  0  0  0  0  0  0  0
   14.8163    5.6785    3.9775 C   0  0  1  0  0  0  0  0  0  0  0  0
   14.2643    4.2734    6.3980 C   0  0  0  0  0  0  0  0  0  0  0  0
   13.7700    3.5175    7.4731 C   0  0  0  0  0  0  0  0  0  0  0  0
   14.3165    2.2534    7.7180 C   0  0  0  0  0  0  0  0  0  0  0  0
   17.2348    0.9674    8.7574 N   0  0  0  0  0  0  0  0  0  0  0  0
   18.1618    0.4603    9.5827 C   0  0  0  0  0  0  0  0  0  0  0  0
   18.8914   -0.7002    9.2888 C   0  0  0  0  0  0  0  0  0  0  0  0
   18.7265   -1.3042    8.0357 C   0  0  0  0  0  0  0  0  0  0  0  0
   18.2609   -2.6664    1.4847 C   0  0  0  0  0  0  0  0  0  0  0  0
   18.8536   -3.3234    0.3943 C   0  0  0  0  0  0  0  0  0  0  0  0
   19.8765   -4.2560    0.6019 C   0  0  0  0  0  0  0  0  0  0  0  0
   20.4234   -4.9222   -0.4418 F   0  0  0  0  0  0  0  0  0  0  0  0
   20.2986   -4.5320    1.9042 C   0  0  0  0  0  0  0  0  0  0  0  0
   17.1392   -1.8108    3.5899 H   0  0  0  0  0  0  0  0  0  0  0  0
   16.7161   -0.9999    5.3710 H   0  0  0  0  0  0  0  0  0  0  0  0
   16.6454    2.1052    5.2666 H   0  0  0  0  0  0  0  0  0  0  0  0
   16.4234    4.3563    2.3016 H   0  0  0  0  0  0  0  0  0  0  0  0
   15.2207    3.1982    2.8288 H   0  0  0  0  0  0  0  0  0  0  0  0
   16.9186    3.0223    3.3095 H   0  0  0  0  0  0  0  0  0  0  0  0
   17.0119    5.9324    5.6688 H   0  0  0  0  0  0  0  0  0  0  0  0
   17.9008    4.5334    5.0876 H   0  0  0  0  0  0  0  0  0  0  0  0
   17.5660    5.8685    3.9928 H   0  0  0  0  0  0  0  0  0  0  0  0
   14.6490    6.4257    4.7515 H   0  0  0  0  0  0  0  0  0  0  0  0
   15.1441    6.2301    3.0952 H   0  0  0  0  0  0  0  0  0  0  0  0
   13.8471    5.2338    3.7429 H   0  0  0  0  0  0  0  0  0  0  0  0
   13.8250    5.2392    6.2125 H   0  0  0  0  0  0  0  0  0  0  0  0
   12.9692    3.8989    8.0914 H   0  0  0  0  0  0  0  0  0  0  0  0
   13.9305    1.6312    8.5106 H   0  0  0  0  0  0  0  0  0  0  0  0
   18.2968    0.9691   10.5265 H   0  0  0  0  0  0  0  0  0  0  0  0
   19.6076   -1.0961    9.9961 H   0  0  0  0  0  0  0  0  0  0  0  0
   19.3174   -2.1801    7.8070 H   0  0  0  0  0  0  0  0  0  0  0  0
   17.4777   -1.9431    1.3066 H   0  0  0  0  0  0  0  0  0  0  0  0
   18.5138   -3.1194   -0.6100 H   0  0  0  0  0  0  0  0  0  0  0  0
   21.0632   -5.2776    2.0648 H   0  0  0  0  0  0  0  0  0  0  0  0
  1  2  1  0
  2 29  1  0
  2  3  2  0
  3  4  1  0
  3 25  1  0
  4  5  1  0
  4 30  1  0
  5  6  2  0
  5  7  1  0
  7  8  1  0
  7 31  1  0
  8 24  1  0
  8  9  2  0
  9 10  1  0
  9 21  1  0
 10 11  1  0
 11 20  1  0
 11 12  2  0
 12 13  1  0
 12 32  1  0
 14 13  1  1
 13 18  2  0
 14 15  1  0
 14 16  1  0
 14 17  1  0
 15 33  1  6
 15 34  1  0
 15 35  1  0
 16 36  1  1
 16 37  1  0
 16 38  1  0
 17 39  1  1
 17 40  1  0
 17 41  1  0
 18 19  1  0
 18 42  1  0
 19 20  2  0
 19 43  1  0
 20 44  1  0
 21 22  2  0
 22 23  1  0
 22 45  1  0
 23 24  2  0
 23 46  1  0
 24 47  1  0
 25 26  2  0
 25 48  1  0
 26 27  1  0
 26 49  1  0
 27 28  1  0
 27 29  2  0
 29 50  1  0
M  END
