6o
     RDKit          3D

 47 49  0  0  1  0  0  0  0  0999 V2000
   16.0651    3.9404    3.5665 F   0  0  0  0  0  0  0  0  0  0  0  0
   15.7385    4.7286    4.5981 C   0  0  2  0  0  0  0  0  0  0  0  0
   14.8319    5.6156    4.1889 F   0  0  0  0  0  0  0  0  0  0  0  0
   16.8353    5.3687    5.0152 F   0  0  0  0  0  0  0  0  0  0  0  0
   15.2179    3.8774    5.7272 C   0  0  0  0  0  0  0  0  0  0  0  0
   15.8271    2.6460    5.9243 C   0  0  0  0  0  0  0  0  0  0  0  0
   15.3548    1.8059    6.9240 C   0  0  0  0  0  0  0  0  0  0  0  0
   15.8727    0.5574    6.9418 O   0  0  0  0  0  0  0  0  0  0  0  0
   17.0452    0.3197    7.5805 C   0  0  0  0  0  0  0  0  0  0  0  0
   17.8128   -0.7627    7.1354 C   0  0  0  0  0  0  0  0  0  0  0  0
   17.5964   -1.2800    5.8278 N   0  0  0  0  0  0  0  0  0  0  0  0
   18.4854   -1.9435    5.0732 C   0  0  0  0  0  0  0  0  0  0  0  0
   19.5892   -2.2816    5.4840 O   0  0  0  0  0  0  0  0  0  0  0  0
   18.0410   -2.1973    3.8326 N   0  0  0  0  0  0  0  0  0  0  0  0
   18.6943   -2.9076    2.7953 C   0  0  0  0  0  0  0  0  0  0  0  0
   19.7218   -3.8513    3.0131 C   0  0  0  0  0  0  0  0  0  0  0  0
   20.2849   -4.5454    1.9346 C   0  0  0  0  0  0  0  0  0  0  0  0
   19.8278   -4.3039    0.6277 C   0  0  0  0  0  0  0  0  0  0  0  0
   20.2698   -5.1331   -0.5038 C   0  0  0  0  0  0  0  0  0  0  0  0
   20.4002   -4.7142   -1.6488 O   0  0  0  0  0  0  0  0  0  0  0  0
   20.4411   -6.4076   -0.1515 O   0  0  0  0  0  0  0  0  0  0  0  0
   20.7107   -7.3555   -1.1641 C   0  0  2  0  0  0  0  0  0  0  0  0
   18.8496   -3.3293    0.4035 C   0  0  0  0  0  0  0  0  0  0  0  0
   18.2623   -2.6597    1.4855 C   0  0  0  0  0  0  0  0  0  0  0  0
   18.7093   -1.3267    8.0615 C   0  0  0  0  0  0  0  0  0  0  0  0
   18.8538   -0.7184    9.3173 C   0  0  0  0  0  0  0  0  0  0  0  0
   18.1233    0.4401    9.5992 C   0  0  0  0  0  0  0  0  0  0  0  0
   17.2331    0.9680    8.7478 N   0  0  0  0  0  0  0  0  0  0  0  0
   14.3014    2.1731    7.7774 C   0  0  0  0  0  0  0  0  0  0  0  0
   13.6998    3.4267    7.5978 C   0  0  0  0  0  0  0  0  0  0  0  0
   14.1577    4.2713    6.5693 C   0  0  0  0  0  0  0  0  0  0  0  0
   16.6246    2.3098    5.2782 H   0  0  0  0  0  0  0  0  0  0  0  0
   16.7542   -0.9752    5.3595 H   0  0  0  0  0  0  0  0  0  0  0  0
   17.1533   -1.7901    3.5885 H   0  0  0  0  0  0  0  0  0  0  0  0
   20.0632   -4.0949    4.0076 H   0  0  0  0  0  0  0  0  0  0  0  0
   21.0406   -5.2938    2.1250 H   0  0  0  0  0  0  0  0  0  0  0  0
   20.9538   -8.3235   -0.7203 H   0  0  0  0  0  0  0  0  0  0  0  0
   21.5638   -7.0568   -1.7831 H   0  0  0  0  0  0  0  0  0  0  0  0
   19.8420   -7.4910   -1.8153 H   0  0  0  0  0  0  0  0  0  0  0  0
   18.4886   -3.1265   -0.5947 H   0  0  0  0  0  0  0  0  0  0  0  0
   17.4863   -1.9311    1.3023 H   0  0  0  0  0  0  0  0  0  0  0  0
   19.2833   -2.2154    7.8480 H   0  0  0  0  0  0  0  0  0  0  0  0
   19.5368   -1.1203   10.0451 H   0  0  0  0  0  0  0  0  0  0  0  0
   18.2339    0.9406   10.5515 H   0  0  0  0  0  0  0  0  0  0  0  0
   13.9384    1.4975    8.5406 H   0  0  0  0  0  0  0  0  0  0  0  0
   12.8823    3.7436    8.2301 H   0  0  0  0  0  0  0  0  0  0  0  0
   13.6827    5.2277    6.4193 H   0  0  0  0  0  0  0  0  0  0  0  0
  2  1  1  6
  2  3  1  0
  2  4  1  0
  2  5  1  0
  5 31  1  0
  5  6  2  0
  6  7  1  0
  6 32  1  0
  7  8  1  0
  7 29  2  0
  8  9  1  0
  9 28  1  0
  9 10  2  0
 10 11  1  0
 10 25  1  0
 11 12  1  0
 11 33  1  0
 12 13  2  0
 12 14  1  0
 14 15  1  0
 14 34  1  0
 15 24  1  0
 15 16  2  0
 16 17  1  0
 16 35  1  0
 17 18  2  0
 17 36  1  0
 18 19  1  0
 18 23  1  0
 19 20  2  0
 19 21  1  0
 21 22  1  0
 22 37  1  1
 22 38  1  0
 22 39  1  0
 23 24  2  0
 23 40  1  0
 24 41  1  0
 25 26  2  0
 25 42  1  0
 26 27  1  0
 26 43  1  0
 27 28  2  0
 27 44  1  0
 29 30  1  0
 29 45  1  0
 30 31  2  0
 30 46  1  0
 31 47  1  0
M  END
