6e
     RDKit          3D

 41 43  0  0  1  0  0  0  0  0999 V2000
   21.5242   -5.7139    2.1516 Cl  0  0  0  0  0  0  0  0  0  0  0  0
   20.3079   -4.5246    1.8997 C   0  0  0  0  0  0  0  0  0  0  0  0
   19.7200   -3.8676    2.9921 C   0  0  0  0  0  0  0  0  0  0  0  0
   18.7006   -2.9179    2.7849 C   0  0  0  0  0  0  0  0  0  0  0  0
   18.0659   -2.2044    3.8207 N   0  0  0  0  0  0  0  0  0  0  0  0
   18.5029   -2.0239    5.0677 C   0  0  0  0  0  0  0  0  0  0  0  0
   19.5695   -2.4197    5.5160 O   0  0  0  0  0  0  0  0  0  0  0  0
   17.6230   -1.3486    5.7928 N   0  0  0  0  0  0  0  0  0  0  0  0
   17.8874   -0.7895    7.0460 C   0  0  0  0  0  0  0  0  0  0  0  0
   16.9598    0.1220    7.5238 C   0  0  0  0  0  0  0  0  0  0  0  0
   15.9893    0.4996    6.6287 O   0  0  0  0  0  0  0  0  0  0  0  0
   15.4396    1.7367    6.6655 C   0  0  0  0  0  0  0  0  0  0  0  0
   15.9527    2.7367    5.8406 C   0  0  0  0  0  0  0  0  0  0  0  0
   15.3138    3.9666    5.8107 C   0  0  0  0  0  0  0  0  0  0  0  0
   15.8054    4.9881    4.8551 C   0  0  1  0  0  0  0  0  0  0  0  0
   16.1485    4.4802    3.6826 F   0  0  0  0  0  0  0  0  0  0  0  0
   14.9043    5.9367    4.6767 F   0  0  0  0  0  0  0  0  0  0  0  0
   16.8642    5.4741    5.4367 F   0  0  0  0  0  0  0  0  0  0  0  0
   14.2575    4.2508    6.6886 C   0  0  0  0  0  0  0  0  0  0  0  0
   13.8078    3.2727    7.5924 C   0  0  0  0  0  0  0  0  0  0  0  0
   14.3865    1.9985    7.5591 C   0  0  0  0  0  0  0  0  0  0  0  0
   17.0476    0.7063    8.7379 N   0  0  0  0  0  0  0  0  0  0  0  0
   18.1248    0.4019    9.4902 C   0  0  0  0  0  0  0  0  0  0  0  0
   19.1555   -0.4496    9.0583 C   0  0  0  0  0  0  0  0  0  0  0  0
   19.0290   -1.0697    7.8067 C   0  0  0  0  0  0  0  0  0  0  0  0
   18.2530   -2.6730    1.4825 C   0  0  0  0  0  0  0  0  0  0  0  0
   18.8455   -3.3246    0.3900 C   0  0  0  0  0  0  0  0  0  0  0  0
   19.8834   -4.2476    0.5959 C   0  0  0  0  0  0  0  0  0  0  0  0
   20.0536   -4.1287    3.9799 H   0  0  0  0  0  0  0  0  0  0  0  0
   17.1715   -1.7919    3.5830 H   0  0  0  0  0  0  0  0  0  0  0  0
   16.8722   -0.9169    5.2656 H   0  0  0  0  0  0  0  0  0  0  0  0
   16.7916    2.5330    5.1877 H   0  0  0  0  0  0  0  0  0  0  0  0
   13.7988    5.2284    6.6866 H   0  0  0  0  0  0  0  0  0  0  0  0
   12.9938    3.4889    8.2707 H   0  0  0  0  0  0  0  0  0  0  0  0
   14.0282    1.2231    8.2203 H   0  0  0  0  0  0  0  0  0  0  0  0
   18.1799    0.8769   10.4567 H   0  0  0  0  0  0  0  0  0  0  0  0
   20.0087   -0.6410    9.6896 H   0  0  0  0  0  0  0  0  0  0  0  0
   19.7831   -1.7584    7.4548 H   0  0  0  0  0  0  0  0  0  0  0  0
   17.4629   -1.9586    1.3053 H   0  0  0  0  0  0  0  0  0  0  0  0
   18.5066   -3.1077   -0.6113 H   0  0  0  0  0  0  0  0  0  0  0  0
   20.3434   -4.7497   -0.2427 H   0  0  0  0  0  0  0  0  0  0  0  0
  1  2  1  0
  2 28  1  0
  2  3  2  0
  3  4  1  0
  3 29  1  0
  4  5  1  0
  4 26  2  0
  5  6  1  0
  5 30  1  0
  6  7  2  0
  6  8  1  0
  8  9  1  0
  8 31  1  0
  9 25  1  0
  9 10  2  0
 10 11  1  0
 10 22  1  0
 11 12  1  0
 12 21  1  0
 12 13  2  0
 13 14  1  0
 13 32  1  0
 14 15  1  0
 14 19  2  0
 15 16  1  6
 15 17  1  0
 15 18  1  0
 19 20  1  0
 19 33  1  0
 20 21  2  0
 20 34  1  0
 21 35  1  0
 22 23  2  0
 23 24  1  0
 23 36  1  0
 24 25  2  0
 24 37  1  0
 25 38  1  0
 26 27  1  0
 26 39  1  0
 27 28  2  0
 27 40  1  0
 28 41  1  0
M  END
