6n
     RDKit          3D

 42 44  0  0  1  0  0  0  0  0999 V2000
   16.9984    5.1697    4.8097 F   0  0  0  0  0  0  0  0  0  0  0  0
   15.7507    4.8095    4.5303 C   0  0  2  0  0  0  0  0  0  0  0  0
   15.7590    4.0811    3.4178 F   0  0  0  0  0  0  0  0  0  0  0  0
   15.0056    5.8926    4.3344 F   0  0  0  0  0  0  0  0  0  0  0  0
   15.2338    3.9596    5.6595 C   0  0  0  0  0  0  0  0  0  0  0  0
   15.8316    2.7179    5.8226 C   0  0  0  0  0  0  0  0  0  0  0  0
   15.3611    1.8553    6.8045 C   0  0  0  0  0  0  0  0  0  0  0  0
   15.8803    0.6082    6.7907 O   0  0  0  0  0  0  0  0  0  0  0  0
   16.9968    0.3300    7.5132 C   0  0  0  0  0  0  0  0  0  0  0  0
   17.7627   -0.7649    7.1018 C   0  0  0  0  0  0  0  0  0  0  0  0
   17.5835   -1.2662    5.7865 N   0  0  0  0  0  0  0  0  0  0  0  0
   18.4809   -1.9472    5.0629 C   0  0  0  0  0  0  0  0  0  0  0  0
   19.5804   -2.2833    5.4885 O   0  0  0  0  0  0  0  0  0  0  0  0
   18.0399   -2.2056    3.8238 N   0  0  0  0  0  0  0  0  0  0  0  0
   18.6969   -2.9140    2.7912 C   0  0  0  0  0  0  0  0  0  0  0  0
   18.2600   -2.6791    1.4809 C   0  0  0  0  0  0  0  0  0  0  0  0
   18.8214   -3.3844    0.4038 C   0  0  0  0  0  0  0  0  0  0  0  0
   19.8055   -4.3579    0.6368 C   0  0  0  0  0  0  0  0  0  0  0  0
   20.2154   -5.2603   -0.4212 C   0  0  0  0  0  0  0  0  0  0  0  0
   20.5313   -5.9920   -1.2566 N   0  0  0  0  0  0  0  0  0  0  0  0
   20.2837   -4.5584    1.9383 C   0  0  0  0  0  0  0  0  0  0  0  0
   19.7218   -3.8545    3.0131 C   0  0  0  0  0  0  0  0  0  0  0  0
   18.6201   -1.3422    8.0575 C   0  0  0  0  0  0  0  0  0  0  0  0
   18.7217   -0.7499    9.3235 C   0  0  0  0  0  0  0  0  0  0  0  0
   18.0027    0.4255    9.5759 C   0  0  0  0  0  0  0  0  0  0  0  0
   17.1535    0.9697    8.6903 N   0  0  0  0  0  0  0  0  0  0  0  0
   14.3117    2.2163    7.6684 C   0  0  0  0  0  0  0  0  0  0  0  0
   13.7225    3.4816    7.5286 C   0  0  0  0  0  0  0  0  0  0  0  0
   14.1807    4.3456    6.5170 C   0  0  0  0  0  0  0  0  0  0  0  0
   16.6231    2.4019    5.1581 H   0  0  0  0  0  0  0  0  0  0  0  0
   16.7604   -0.9472    5.2964 H   0  0  0  0  0  0  0  0  0  0  0  0
   17.1602   -1.7846    3.5662 H   0  0  0  0  0  0  0  0  0  0  0  0
   17.4748   -1.9624    1.2914 H   0  0  0  0  0  0  0  0  0  0  0  0
   18.4370   -3.2250   -0.5935 H   0  0  0  0  0  0  0  0  0  0  0  0
   21.0338   -5.3113    2.1349 H   0  0  0  0  0  0  0  0  0  0  0  0
   20.0757   -4.0863    4.0055 H   0  0  0  0  0  0  0  0  0  0  0  0
   19.1906   -2.2358    7.8572 H   0  0  0  0  0  0  0  0  0  0  0  0
   19.3699   -1.1694   10.0784 H   0  0  0  0  0  0  0  0  0  0  0  0
   18.0882    0.9265   10.5290 H   0  0  0  0  0  0  0  0  0  0  0  0
   13.9478    1.5198    8.4108 H   0  0  0  0  0  0  0  0  0  0  0  0
   12.9106    3.7795    8.1769 H   0  0  0  0  0  0  0  0  0  0  0  0
   13.7084    5.3079    6.3916 H   0  0  0  0  0  0  0  0  0  0  0  0
  2  1  1  1
  2  3  1  0
  2  4  1  0
  2  5  1  0
  5 29  1  0
  5  6  2  0
  6  7  1  0
  6 30  1  0
  7  8  1  0
  7 27  2  0
  8  9  1  0
  9 26  1  0
  9 10  2  0
 10 11  1  0
 10 23  1  0
 11 12  1  0
 11 31  1  0
 12 13  2  0
 12 14  1  0
 14 15  1  0
 14 32  1  0
 15 22  1  0
 15 16  2  0
 16 17  1  0
 16 33  1  0
 17 18  2  0
 17 34  1  0
 18 19  1  0
 18 21  1  0
 19 20  3  0
 21 22  2  0
 21 35  1  0
 22 36  1  0
 23 24  2  0
 23 37  1  0
 24 25  1  0
 24 38  1  0
 25 26  2  0
 25 39  1  0
 27 28  1  0
 27 40  1  0
 28 29  2  0
 28 41  1  0
 29 42  1  0
M  END
