11a
     RDKit          3D

 38 40  0  0  1  0  0  0  0  0999 V2000
   20.0743   -4.3052    4.2275 F   0  0  0  0  0  0  0  0  0  0  0  0
   19.7088   -3.8864    2.9994 C   0  0  0  0  0  0  0  0  0  0  0  0
   18.6984   -2.9203    2.7966 C   0  0  0  0  0  0  0  0  0  0  0  0
   18.0413   -2.2065    3.8280 N   0  0  0  0  0  0  0  0  0  0  0  0
   18.4709   -1.9264    5.0649 C   0  0  0  0  0  0  0  0  0  0  0  0
   19.5786   -2.2148    5.5014 O   0  0  0  0  0  0  0  0  0  0  0  0
   17.5633   -1.2335    5.7645 N   0  0  0  0  0  0  0  0  0  0  0  0
   17.7163   -0.7294    7.0778 C   0  0  0  0  0  0  0  0  0  0  0  0
   16.8319    0.2636    7.5377 C   0  0  0  0  0  0  0  0  0  0  0  0
   15.8090    0.6979    6.7175 O   0  0  0  0  0  0  0  0  0  0  0  0
   15.3427    1.9920    6.7545 C   0  0  0  0  0  0  0  0  0  0  0  0
   15.7526    2.9124    5.7733 C   0  0  0  0  0  0  0  0  0  0  0  0
   15.2565    4.2275    5.8019 C   0  0  0  0  0  0  0  0  0  0  0  0
   14.3482    4.6248    6.7968 C   0  0  0  0  0  0  0  0  0  0  0  0
   13.9183    3.7059    7.7584 C   0  0  0  0  0  0  0  0  0  0  0  0
   14.4052    2.3955    7.7249 C   0  0  0  0  0  0  0  0  0  0  0  0
   16.9620    0.8356    8.7561 N   0  0  0  0  0  0  0  0  0  0  0  0
   17.9393    0.4096    9.5751 C   0  0  0  0  0  0  0  0  0  0  0  0
   18.8246   -0.6142    9.2296 C   0  0  0  0  0  0  0  0  0  0  0  0
   18.7089   -1.1950    7.9620 C   0  0  0  0  0  0  0  0  0  0  0  0
   18.2609   -2.6721    1.4902 C   0  0  0  0  0  0  0  0  0  0  0  0
   18.8565   -3.3245    0.4015 C   0  0  0  0  0  0  0  0  0  0  0  0
   19.8908   -4.2453    0.6118 C   0  0  0  0  0  0  0  0  0  0  0  0
   20.4466   -4.8970   -0.4355 F   0  0  0  0  0  0  0  0  0  0  0  0
   20.3195   -4.5168    1.9100 C   0  0  0  0  0  0  0  0  0  0  0  0
   17.1579   -1.7934    3.5719 H   0  0  0  0  0  0  0  0  0  0  0  0
   16.7486   -0.9181    5.2596 H   0  0  0  0  0  0  0  0  0  0  0  0
   16.4501    2.6104    5.0100 H   0  0  0  0  0  0  0  0  0  0  0  0
   15.5709    4.9338    5.0459 H   0  0  0  0  0  0  0  0  0  0  0  0
   13.9695    5.6354    6.8140 H   0  0  0  0  0  0  0  0  0  0  0  0
   13.2076    4.0026    8.5178 H   0  0  0  0  0  0  0  0  0  0  0  0
   14.0600    1.6939    8.4691 H   0  0  0  0  0  0  0  0  0  0  0  0
   18.0050    0.8921   10.5378 H   0  0  0  0  0  0  0  0  0  0  0  0
   19.5865   -0.9407    9.9190 H   0  0  0  0  0  0  0  0  0  0  0  0
   19.3917   -1.9870    7.6904 H   0  0  0  0  0  0  0  0  0  0  0  0
   17.4769   -1.9528    1.3148 H   0  0  0  0  0  0  0  0  0  0  0  0
   18.5165   -3.1143   -0.6012 H   0  0  0  0  0  0  0  0  0  0  0  0
   21.1073   -5.2403    2.0789 H   0  0  0  0  0  0  0  0  0  0  0  0
  1  2  1  0
  2 25  1  0
  2  3  2  0
  3  4  1  0
  3 21  1  0
  4  5  1  0
  4 26  1  0
  5  6  2  0
  5  7  1  0
  7  8  1  0
  7 27  1  0
  8 20  1  0
  8  9  2  0
  9 10  1  0
  9 17  1  0
 10 11  1  0
 11 16  1  0
 11 12  2  0
 12 13  1  0
 12 28  1  0
 13 14  2  0
 13 29  1  0
 14 15  1  0
 14 30  1  0
 15 16  2  0
 15 31  1  0
 16 32  1  0
 17 18  2  0
 18 19  1  0
 18 33  1  0
 19 20  2  0
 19 34  1  0
 20 35  1  0
 21 22  2  0
 21 36  1  0
 22 23  1  0
 22 37  1  0
 23 24  1  0
 23 25  2  0
 25 38  1  0
M  END
