1
     RDKit          3D

 41 43  0  0  1  0  0  0  0  0999 V2000
   14.8155    5.7227    4.1679 F   0  0  0  0  0  0  0  0  0  0  0  0
   15.7434    4.8539    4.5645 C   0  0  2  0  0  0  0  0  0  0  0  0
   16.8135    5.5136    4.9964 F   0  0  0  0  0  0  0  0  0  0  0  0
   16.0994    4.1056    3.5230 F   0  0  0  0  0  0  0  0  0  0  0  0
   15.2310    3.9730    5.6749 C   0  0  0  0  0  0  0  0  0  0  0  0
   15.8396    2.7345    5.8359 C   0  0  0  0  0  0  0  0  0  0  0  0
   15.3657    1.8637    6.8081 C   0  0  0  0  0  0  0  0  0  0  0  0
   15.8808    0.6169    6.7852 O   0  0  0  0  0  0  0  0  0  0  0  0
   16.9908    0.3296    7.5138 C   0  0  0  0  0  0  0  0  0  0  0  0
   17.7544   -0.7645    7.1013 C   0  0  0  0  0  0  0  0  0  0  0  0
   17.5681   -1.2733    5.7901 N   0  0  0  0  0  0  0  0  0  0  0  0
   18.4811   -1.9229    5.0583 C   0  0  0  0  0  0  0  0  0  0  0  0
   19.6063   -2.1740    5.4667 O   0  0  0  0  0  0  0  0  0  0  0  0
   18.0369   -2.2055    3.8256 N   0  0  0  0  0  0  0  0  0  0  0  0
   18.6937   -2.9247    2.7963 C   0  0  0  0  0  0  0  0  0  0  0  0
   19.6984   -3.8995    2.9998 C   0  0  0  0  0  0  0  0  0  0  0  0
   20.0639   -4.3121    4.2308 F   0  0  0  0  0  0  0  0  0  0  0  0
   20.3027   -4.5361    1.9079 C   0  0  0  0  0  0  0  0  0  0  0  0
   19.8805   -4.2573    0.6062 C   0  0  0  0  0  0  0  0  0  0  0  0
   20.4184   -4.9195   -0.4417 F   0  0  0  0  0  0  0  0  0  0  0  0
   18.8546   -3.3274    0.4008 C   0  0  0  0  0  0  0  0  0  0  0  0
   18.2638   -2.6678    1.4869 C   0  0  0  0  0  0  0  0  0  0  0  0
   18.6144   -1.3410    8.0535 C   0  0  0  0  0  0  0  0  0  0  0  0
   18.7152   -0.7507    9.3200 C   0  0  0  0  0  0  0  0  0  0  0  0
   17.9986    0.4243    9.5745 C   0  0  0  0  0  0  0  0  0  0  0  0
   17.1483    0.9696    8.6911 N   0  0  0  0  0  0  0  0  0  0  0  0
   14.3094    2.2097    7.6677 C   0  0  0  0  0  0  0  0  0  0  0  0
   13.7098    3.4691    7.5328 C   0  0  0  0  0  0  0  0  0  0  0  0
   14.1668    4.3417    6.5269 C   0  0  0  0  0  0  0  0  0  0  0  0
   16.6385    2.4143    5.1815 H   0  0  0  0  0  0  0  0  0  0  0  0
   16.7193   -0.9978    5.3166 H   0  0  0  0  0  0  0  0  0  0  0  0
   17.1540   -1.7950    3.5677 H   0  0  0  0  0  0  0  0  0  0  0  0
   21.0680   -5.2773    2.0808 H   0  0  0  0  0  0  0  0  0  0  0  0
   18.5150   -3.1226   -0.6025 H   0  0  0  0  0  0  0  0  0  0  0  0
   17.4842   -1.9435    1.2986 H   0  0  0  0  0  0  0  0  0  0  0  0
   19.1866   -2.2340    7.8552 H   0  0  0  0  0  0  0  0  0  0  0  0
   19.3644   -1.1696   10.0724 H   0  0  0  0  0  0  0  0  0  0  0  0
   18.0886    0.9219   10.5275 H   0  0  0  0  0  0  0  0  0  0  0  0
   13.9431    1.5017    8.3978 H   0  0  0  0  0  0  0  0  0  0  0  0
   12.8879    3.7459    8.1780 H   0  0  0  0  0  0  0  0  0  0  0  0
   13.6809    5.2968    6.4002 H   0  0  0  0  0  0  0  0  0  0  0  0
  2  1  1  6
  2  3  1  0
  2  4  1  0
  2  5  1  0
  5 29  1  0
  5  6  2  0
  6  7  1  0
  6 30  1  0
  7  8  1  0
  7 27  2  0
  8  9  1  0
  9 26  1  0
  9 10  2  0
 10 11  1  0
 10 23  1  0
 11 12  1  0
 11 31  1  0
 12 13  2  0
 12 14  1  0
 14 15  1  0
 14 32  1  0
 15 22  1  0
 15 16  2  0
 16 17  1  0
 16 18  1  0
 18 19  2  0
 18 33  1  0
 19 20  1  0
 19 21  1  0
 21 22  2  0
 21 34  1  0
 22 35  1  0
 23 24  2  0
 23 36  1  0
 24 25  1  0
 24 37  1  0
 25 26  2  0
 25 38  1  0
 27 28  1  0
 27 39  1  0
 28 29  2  0
 28 40  1  0
 29 41  1  0
M  END
