6j
     RDKit          3D

 45 47  0  0  1  0  0  0  0  0999 V2000
   20.8525   -6.5426   -1.8128 F   0  0  0  0  0  0  0  0  0  0  0  0
   20.6209   -6.1516   -0.5426 C   0  0  1  0  0  0  0  0  0  0  0  0
   19.5349   -6.8291   -0.1252 F   0  0  0  0  0  0  0  0  0  0  0  0
   21.6834   -6.5350    0.1976 F   0  0  0  0  0  0  0  0  0  0  0  0
   20.4365   -4.8127   -0.5049 O   0  0  0  0  0  0  0  0  0  0  0  0
   19.8912   -4.2382    0.6119 C   0  0  0  0  0  0  0  0  0  0  0  0
   20.3227   -4.5056    1.9239 C   0  0  0  0  0  0  0  0  0  0  0  0
   19.7186   -3.8565    3.0111 C   0  0  0  0  0  0  0  0  0  0  0  0
   18.6906   -2.9179    2.7944 C   0  0  0  0  0  0  0  0  0  0  0  0
   18.0375   -2.2068    3.8270 N   0  0  0  0  0  0  0  0  0  0  0  0
   18.4818   -1.9478    5.0642 C   0  0  0  0  0  0  0  0  0  0  0  0
   19.5817   -2.2845    5.4881 O   0  0  0  0  0  0  0  0  0  0  0  0
   17.5859   -1.2667    5.7886 N   0  0  0  0  0  0  0  0  0  0  0  0
   17.7654   -0.7660    7.1034 C   0  0  0  0  0  0  0  0  0  0  0  0
   17.0009    0.3301    7.5127 C   0  0  0  0  0  0  0  0  0  0  0  0
   15.8915    0.6127    6.7824 O   0  0  0  0  0  0  0  0  0  0  0  0
   15.3698    1.8585    6.8005 C   0  0  0  0  0  0  0  0  0  0  0  0
   15.8380    2.7227    5.8193 C   0  0  0  0  0  0  0  0  0  0  0  0
   15.2384    3.9636    5.6581 C   0  0  0  0  0  0  0  0  0  0  0  0
   15.7533    4.8135    4.5280 C   0  0  1  0  0  0  0  0  0  0  0  0
   15.7227    4.0964    3.4091 F   0  0  0  0  0  0  0  0  0  0  0  0
   15.0317    5.9161    4.3572 F   0  0  0  0  0  0  0  0  0  0  0  0
   17.0143    5.1410    4.7866 F   0  0  0  0  0  0  0  0  0  0  0  0
   14.1841    4.3462    6.5156 C   0  0  0  0  0  0  0  0  0  0  0  0
   13.7271    3.4798    7.5257 C   0  0  0  0  0  0  0  0  0  0  0  0
   14.3186    2.2152    7.6637 C   0  0  0  0  0  0  0  0  0  0  0  0
   17.1547    0.9698    8.6900 N   0  0  0  0  0  0  0  0  0  0  0  0
   18.0025    0.4254    9.5768 C   0  0  0  0  0  0  0  0  0  0  0  0
   18.7237   -0.7490    9.3251 C   0  0  0  0  0  0  0  0  0  0  0  0
   18.6237   -1.3421    8.0594 C   0  0  0  0  0  0  0  0  0  0  0  0
   18.2517   -2.6746    1.4881 C   0  0  0  0  0  0  0  0  0  0  0  0
   18.8569   -3.3206    0.4058 C   0  0  0  0  0  0  0  0  0  0  0  0
   21.1223   -5.2047    2.1146 H   0  0  0  0  0  0  0  0  0  0  0  0
   20.0664   -4.0996    4.0029 H   0  0  0  0  0  0  0  0  0  0  0  0
   17.1589   -1.7837    3.5696 H   0  0  0  0  0  0  0  0  0  0  0  0
   16.7629   -0.9465    5.2989 H   0  0  0  0  0  0  0  0  0  0  0  0
   16.6291    2.4089    5.1535 H   0  0  0  0  0  0  0  0  0  0  0  0
   13.7101    5.3078    6.3910 H   0  0  0  0  0  0  0  0  0  0  0  0
   12.9143    3.7753    8.1739 H   0  0  0  0  0  0  0  0  0  0  0  0
   13.9552    1.5168    8.4046 H   0  0  0  0  0  0  0  0  0  0  0  0
   18.0869    0.9259   10.5302 H   0  0  0  0  0  0  0  0  0  0  0  0
   19.3721   -1.1677   10.0804 H   0  0  0  0  0  0  0  0  0  0  0  0
   19.1961   -2.2346    7.8595 H   0  0  0  0  0  0  0  0  0  0  0  0
   17.4567   -1.9677    1.3048 H   0  0  0  0  0  0  0  0  0  0  0  0
   18.5194   -3.1107   -0.5986 H   0  0  0  0  0  0  0  0  0  0  0  0
  2  1  1  6
  2  3  1  0
  2  4  1  0
  2  5  1  0
  5  6  1  0
  6 32  1  0
  6  7  2  0
  7  8  1  0
  7 33  1  0
  8  9  2  0
  8 34  1  0
  9 10  1  0
  9 31  1  0
 10 11  1  0
 10 35  1  0
 11 12  2  0
 11 13  1  0
 13 14  1  0
 13 36  1  0
 14 30  1  0
 14 15  2  0
 15 16  1  0
 15 27  1  0
 16 17  1  0
 17 26  1  0
 17 18  2  0
 18 19  1  0
 18 37  1  0
 19 20  1  0
 19 24  2  0
 20 21  1  6
 20 22  1  0
 20 23  1  0
 24 25  1  0
 24 38  1  0
 25 26  2  0
 25 39  1  0
 26 40  1  0
 27 28  2  0
 28 29  1  0
 28 41  1  0
 29 30  2  0
 29 42  1  0
 30 43  1  0
 31 32  2  0
 31 44  1  0
 32 45  1  0
M  END
