6i
     RDKit          3D

 53 55  0  0  1  0  0  0  0  0999 V2000
   16.9765    5.2471    4.8207 F   0  0  0  0  0  0  0  0  0  0  0  0
   15.7761    4.7639    4.4987 C   0  0  2  0  0  0  0  0  0  0  0  0
   15.9022    3.9862    3.4265 F   0  0  0  0  0  0  0  0  0  0  0  0
   14.9613    5.7738    4.2093 F   0  0  0  0  0  0  0  0  0  0  0  0
   15.2642    3.9261    5.6413 C   0  0  0  0  0  0  0  0  0  0  0  0
   15.8294    2.6678    5.7967 C   0  0  0  0  0  0  0  0  0  0  0  0
   15.3633    1.8225    6.7970 C   0  0  0  0  0  0  0  0  0  0  0  0
   15.8818    0.5783    6.7979 O   0  0  0  0  0  0  0  0  0  0  0  0
   17.0045    0.3213    7.5141 C   0  0  0  0  0  0  0  0  0  0  0  0
   17.7720   -0.7707    7.1052 C   0  0  0  0  0  0  0  0  0  0  0  0
   17.5841   -1.2761    5.7926 N   0  0  0  0  0  0  0  0  0  0  0  0
   18.4809   -1.9486    5.0638 C   0  0  0  0  0  0  0  0  0  0  0  0
   19.5811   -2.2807    5.4901 O   0  0  0  0  0  0  0  0  0  0  0  0
   18.0395   -2.2055    3.8246 N   0  0  0  0  0  0  0  0  0  0  0  0
   18.6953   -2.9167    2.7932 C   0  0  0  0  0  0  0  0  0  0  0  0
   18.2667   -2.6840    1.4820 C   0  0  0  0  0  0  0  0  0  0  0  0
   18.8388   -3.3937    0.4142 C   0  0  0  0  0  0  0  0  0  0  0  0
   19.8316   -4.3708    0.6353 C   0  0  0  0  0  0  0  0  0  0  0  0
   20.3211   -5.2513   -0.5221 C   0  0  2  0  0  0  0  0  0  0  0  0
   19.1689   -6.0828   -1.0917 C   0  0  2  0  0  0  0  0  0  0  0  0
   21.3959   -6.2639   -0.1031 C   0  0  1  0  0  0  0  0  0  0  0  0
   20.9055   -4.3651   -1.6271 C   0  0  1  0  0  0  0  0  0  0  0  0
   20.2905   -4.5591    1.9508 C   0  0  0  0  0  0  0  0  0  0  0  0
   19.7150   -3.8584    3.0172 C   0  0  0  0  0  0  0  0  0  0  0  0
   18.6281   -1.3437    8.0648 C   0  0  0  0  0  0  0  0  0  0  0  0
   18.7309   -0.7429    9.3280 C   0  0  0  0  0  0  0  0  0  0  0  0
   18.0116    0.4354    9.5733 C   0  0  0  0  0  0  0  0  0  0  0  0
   17.1586    0.9707    8.6866 N   0  0  0  0  0  0  0  0  0  0  0  0
   14.3302    2.2097    7.6709 C   0  0  0  0  0  0  0  0  0  0  0  0
   13.7572    3.4825    7.5256 C   0  0  0  0  0  0  0  0  0  0  0  0
   14.2267    4.3347    6.5072 C   0  0  0  0  0  0  0  0  0  0  0  0
   16.5954    2.3300    5.1118 H   0  0  0  0  0  0  0  0  0  0  0  0
   16.7562   -0.9613    5.3065 H   0  0  0  0  0  0  0  0  0  0  0  0
   17.1606   -1.7823    3.5692 H   0  0  0  0  0  0  0  0  0  0  0  0
   17.4845   -1.9658    1.2828 H   0  0  0  0  0  0  0  0  0  0  0  0
   18.4627   -3.2192   -0.5817 H   0  0  0  0  0  0  0  0  0  0  0  0
   19.4874   -6.6347   -1.9760 H   0  0  0  0  0  0  0  0  0  0  0  0
   18.3234   -5.4623   -1.3844 H   0  0  0  0  0  0  0  0  0  0  0  0
   18.8052   -6.8236   -0.3807 H   0  0  0  0  0  0  0  0  0  0  0  0
   22.2795   -5.7610    0.2950 H   0  0  0  0  0  0  0  0  0  0  0  0
   21.0230   -6.9702    0.6430 H   0  0  0  0  0  0  0  0  0  0  0  0
   21.7325   -6.8585   -0.9519 H   0  0  0  0  0  0  0  0  0  0  0  0
   21.7408   -3.7708   -1.2521 H   0  0  0  0  0  0  0  0  0  0  0  0
   21.2675   -4.9644   -2.4630 H   0  0  0  0  0  0  0  0  0  0  0  0
   20.1668   -3.6790   -2.0399 H   0  0  0  0  0  0  0  0  0  0  0  0
   21.0555   -5.2846    2.1815 H   0  0  0  0  0  0  0  0  0  0  0  0
   20.0598   -4.0925    4.0124 H   0  0  0  0  0  0  0  0  0  0  0  0
   19.1944   -2.2424    7.8731 H   0  0  0  0  0  0  0  0  0  0  0  0
   19.3814   -1.1523   10.0858 H   0  0  0  0  0  0  0  0  0  0  0  0
   18.0994    0.9466   10.5222 H   0  0  0  0  0  0  0  0  0  0  0  0
   13.9655    1.5213    8.4218 H   0  0  0  0  0  0  0  0  0  0  0  0
   12.9533    3.7986    8.1754 H   0  0  0  0  0  0  0  0  0  0  0  0
   13.7765    5.3061    6.3757 H   0  0  0  0  0  0  0  0  0  0  0  0
  2  1  1  1
  2  3  1  0
  2  4  1  0
  2  5  1  0
  5 31  1  0
  5  6  2  0
  6  7  1  0
  6 32  1  0
  7  8  1  0
  7 29  2  0
  8  9  1  0
  9 28  1  0
  9 10  2  0
 10 11  1  0
 10 25  1  0
 11 12  1  0
 11 33  1  0
 12 13  2  0
 12 14  1  0
 14 15  1  0
 14 34  1  0
 15 24  1  0
 15 16  2  0
 16 17  1  0
 16 35  1  0
 17 18  2  0
 17 36  1  0
 19 18  1  1
 18 23  1  0
 19 20  1  0
 19 21  1  0
 19 22  1  0
 20 37  1  6
 20 38  1  0
 20 39  1  0
 21 40  1  1
 21 41  1  0
 21 42  1  0
 22 43  1  1
 22 44  1  0
 22 45  1  0
 23 24  2  0
 23 46  1  0
 24 47  1  0
 25 26  2  0
 25 48  1  0
 26 27  1  0
 26 49  1  0
 27 28  2  0
 27 50  1  0
 29 30  1  0
 29 51  1  0
 30 31  2  0
 30 52  1  0
 31 53  1  0
M  END
