16
     RDKit          3D

 54 56  0  0  1  0  0  0  0  0999 V2000
   18.8444   -6.1491   -1.1788 F   0  0  0  0  0  0  0  0  0  0  0  0
   20.1095   -6.1354   -0.7604 C   0  0  2  0  0  0  0  0  0  0  0  0
   20.8737   -6.5582   -1.7651 F   0  0  0  0  0  0  0  0  0  0  0  0
   20.2685   -6.9881    0.2544 F   0  0  0  0  0  0  0  0  0  0  0  0
   20.5361   -4.8166   -0.4264 O   0  0  0  0  0  0  0  0  0  0  0  0
   19.9018   -4.2258    0.6396 C   0  0  0  0  0  0  0  0  0  0  0  0
   18.8644   -3.3204    0.4156 C   0  0  0  0  0  0  0  0  0  0  0  0
   18.2578   -2.6779    1.4927 C   0  0  0  0  0  0  0  0  0  0  0  0
   20.3282   -4.4913    1.9406 C   0  0  0  0  0  0  0  0  0  0  0  0
   19.7230   -3.8511    3.0183 C   0  0  0  0  0  0  0  0  0  0  0  0
   18.6956   -2.9186    2.7967 C   0  0  0  0  0  0  0  0  0  0  0  0
   18.0423   -2.2064    3.8229 N   0  0  0  0  0  0  0  0  0  0  0  0
   18.4844   -1.9396    5.0702 C   0  0  0  0  0  0  0  0  0  0  0  0
   19.5872   -2.2776    5.5039 O   0  0  0  0  0  0  0  0  0  0  0  0
   17.5753   -1.2291    5.7713 N   0  0  0  0  0  0  0  0  0  0  0  0
   17.7207   -0.7290    7.0832 C   0  0  0  0  0  0  0  0  0  0  0  0
   18.4894   -1.3741    8.0690 C   0  0  0  0  0  0  0  0  0  0  0  0
   18.6308   -0.7995    9.3311 C   0  0  0  0  0  0  0  0  0  0  0  0
   17.9953    0.4138    9.5838 C   0  0  0  0  0  0  0  0  0  0  0  0
   17.2211    1.0390    8.6656 N   0  0  0  0  0  0  0  0  0  0  0  0
   17.0637    0.4639    7.4363 C   0  0  0  0  0  0  0  0  0  0  0  0
   16.2279    1.0898    6.5223 O   0  0  0  0  0  0  0  0  0  0  0  0
   15.2878    2.0406    6.8843 C   0  0  0  0  0  0  0  0  0  0  0  0
   14.3907    1.7563    7.9234 C   0  0  0  0  0  0  0  0  0  0  0  0
   13.4257    2.6796    8.3075 C   0  0  0  0  0  0  0  0  0  0  0  0
   13.3225    3.8865    7.6333 C   0  0  0  0  0  0  0  0  0  0  0  0
   14.1832    4.1682    6.5768 C   0  0  0  0  0  0  0  0  0  0  0  0
   15.1809    3.2579    6.1734 C   0  0  0  0  0  0  0  0  0  0  0  0
   16.1309    3.5910    4.9850 C   0  0  1  0  0  0  0  0  0  0  0  0
   16.0110    2.5132    3.8798 C   0  0  1  0  0  0  0  0  0  0  0  0
   15.8043    4.9497    4.3035 C   0  0  1  0  0  0  0  0  0  0  0  0
   17.5969    3.6790    5.4776 C   0  0  1  0  0  0  0  0  0  0  0  0
   18.5368   -3.1122   -0.5916 H   0  0  0  0  0  0  0  0  0  0  0  0
   17.4582   -1.9774    1.3085 H   0  0  0  0  0  0  0  0  0  0  0  0
   21.1322   -5.1912    2.1153 H   0  0  0  0  0  0  0  0  0  0  0  0
   20.0660   -4.0957    4.0111 H   0  0  0  0  0  0  0  0  0  0  0  0
   17.1652   -1.7796    3.5566 H   0  0  0  0  0  0  0  0  0  0  0  0
   16.7678   -0.8893    5.2663 H   0  0  0  0  0  0  0  0  0  0  0  0
   18.9810   -2.3158    7.8753 H   0  0  0  0  0  0  0  0  0  0  0  0
   19.2253   -1.2821   10.0915 H   0  0  0  0  0  0  0  0  0  0  0  0
   18.0848    0.8967   10.5454 H   0  0  0  0  0  0  0  0  0  0  0  0
   14.4442    0.8136    8.4432 H   0  0  0  0  0  0  0  0  0  0  0  0
   12.7586    2.4562    9.1241 H   0  0  0  0  0  0  0  0  0  0  0  0
   12.5685    4.6010    7.9262 H   0  0  0  0  0  0  0  0  0  0  0  0
   14.0433    5.1126    6.0786 H   0  0  0  0  0  0  0  0  0  0  0  0
   16.5381    2.8024    2.9693 H   0  0  0  0  0  0  0  0  0  0  0  0
   16.4360    1.5562    4.1756 H   0  0  0  0  0  0  0  0  0  0  0  0
   14.9675    2.3432    3.6126 H   0  0  0  0  0  0  0  0  0  0  0  0
   16.4767    5.1548    3.4689 H   0  0  0  0  0  0  0  0  0  0  0  0
   14.7903    4.9680    3.9001 H   0  0  0  0  0  0  0  0  0  0  0  0
   15.9068    5.7872    4.9952 H   0  0  0  0  0  0  0  0  0  0  0  0
   18.2750    3.9525    4.6677 H   0  0  0  0  0  0  0  0  0  0  0  0
   17.7091    4.4317    6.2593 H   0  0  0  0  0  0  0  0  0  0  0  0
   17.9647    2.7370    5.8813 H   0  0  0  0  0  0  0  0  0  0  0  0
  2  1  1  6
  2  3  1  0
  2  4  1  0
  2  5  1  0
  5  6  1  0
  6  7  1  0
  6  9  2  0
  7  8  2  0
  7 33  1  0
  8 11  1  0
  8 34  1  0
  9 10  1  0
  9 35  1  0
 10 11  2  0
 10 36  1  0
 11 12  1  0
 12 13  1  0
 12 37  1  0
 13 14  2  0
 13 15  1  0
 15 16  1  0
 15 38  1  0
 16 17  2  0
 16 21  1  0
 17 18  1  0
 17 39  1  0
 18 19  2  0
 18 40  1  0
 19 20  1  0
 19 41  1  0
 20 21  2  0
 21 22  1  0
 22 23  1  0
 23 24  1  0
 23 28  2  0
 24 25  2  0
 24 42  1  0
 25 26  1  0
 25 43  1  0
 26 27  2  0
 26 44  1  0
 27 28  1  0
 27 45  1  0
 29 28  1  1
 29 30  1  0
 29 31  1  0
 29 32  1  0
 30 46  1  6
 30 47  1  0
 30 48  1  0
 31 49  1  6
 31 50  1  0
 31 51  1  0
 32 52  1  6
 32 53  1  0
 32 54  1  0
M  END
