6f
     RDKit          3D

 41 43  0  0  1  0  0  0  0  0999 V2000
   16.8260    5.4866    5.0116 F   0  0  0  0  0  0  0  0  0  0  0  0
   15.7453    4.8454    4.5736 C   0  0  2  0  0  0  0  0  0  0  0  0
   16.0928    4.0970    3.5232 F   0  0  0  0  0  0  0  0  0  0  0  0
   14.8278    5.7428    4.1981 F   0  0  0  0  0  0  0  0  0  0  0  0
   15.2367    3.9636    5.6841 C   0  0  0  0  0  0  0  0  0  0  0  0
   15.8442    2.7235    5.8408 C   0  0  0  0  0  0  0  0  0  0  0  0
   15.3661    1.8518    6.8128 C   0  0  0  0  0  0  0  0  0  0  0  0
   15.8891    0.6056    6.7899 O   0  0  0  0  0  0  0  0  0  0  0  0
   17.0046    0.3263    7.5138 C   0  0  0  0  0  0  0  0  0  0  0  0
   17.7720   -0.7672    7.1021 C   0  0  0  0  0  0  0  0  0  0  0  0
   17.5901   -1.2571    5.7835 N   0  0  0  0  0  0  0  0  0  0  0  0
   18.4825   -1.9458    5.0672 C   0  0  0  0  0  0  0  0  0  0  0  0
   19.5788   -2.2838    5.4984 O   0  0  0  0  0  0  0  0  0  0  0  0
   18.0421   -2.2052    3.8300 N   0  0  0  0  0  0  0  0  0  0  0  0
   18.6958   -2.9143    2.7956 C   0  0  0  0  0  0  0  0  0  0  0  0
   19.7235   -3.8526    3.0135 C   0  0  0  0  0  0  0  0  0  0  0  0
   20.3213   -4.5059    1.9276 C   0  0  0  0  0  0  0  0  0  0  0  0
   19.8900   -4.2506    0.6203 C   0  0  0  0  0  0  0  0  0  0  0  0
   20.4381   -4.9175   -0.4207 F   0  0  0  0  0  0  0  0  0  0  0  0
   18.8562   -3.3306    0.4046 C   0  0  0  0  0  0  0  0  0  0  0  0
   18.2562   -2.6753    1.4877 C   0  0  0  0  0  0  0  0  0  0  0  0
   18.6366   -1.3410    8.0551 C   0  0  0  0  0  0  0  0  0  0  0  0
   18.7354   -0.7489    9.3226 C   0  0  0  0  0  0  0  0  0  0  0  0
   18.0122    0.4239    9.5742 C   0  0  0  0  0  0  0  0  0  0  0  0
   17.1626    0.9697    8.6887 N   0  0  0  0  0  0  0  0  0  0  0  0
   14.3067    2.2008    7.6725 C   0  0  0  0  0  0  0  0  0  0  0  0
   13.7091    3.4619    7.5351 C   0  0  0  0  0  0  0  0  0  0  0  0
   14.1743    4.3352    6.5358 C   0  0  0  0  0  0  0  0  0  0  0  0
   16.6412    2.4179    5.1779 H   0  0  0  0  0  0  0  0  0  0  0  0
   16.7788   -0.9271    5.2804 H   0  0  0  0  0  0  0  0  0  0  0  0
   17.1609   -1.7862    3.5763 H   0  0  0  0  0  0  0  0  0  0  0  0
   20.0704   -4.1021    4.0050 H   0  0  0  0  0  0  0  0  0  0  0  0
   21.1140   -5.2190    2.1031 H   0  0  0  0  0  0  0  0  0  0  0  0
   18.5138   -3.1375   -0.5998 H   0  0  0  0  0  0  0  0  0  0  0  0
   17.4605   -1.9700    1.2997 H   0  0  0  0  0  0  0  0  0  0  0  0
   19.2152   -2.2308    7.8544 H   0  0  0  0  0  0  0  0  0  0  0  0
   19.3872   -1.1674   10.0775 H   0  0  0  0  0  0  0  0  0  0  0  0
   18.1051    0.9309   10.5232 H   0  0  0  0  0  0  0  0  0  0  0  0
   13.9465    1.4956    8.4096 H   0  0  0  0  0  0  0  0  0  0  0  0
   12.8859    3.7497    8.1740 H   0  0  0  0  0  0  0  0  0  0  0  0
   13.7019    5.2989    6.4127 H   0  0  0  0  0  0  0  0  0  0  0  0
  2  1  1  1
  2  3  1  0
  2  4  1  0
  2  5  1  0
  5 28  1  0
  5  6  2  0
  6  7  1  0
  6 29  1  0
  7  8  1  0
  7 26  2  0
  8  9  1  0
  9 25  1  0
  9 10  2  0
 10 11  1  0
 10 22  1  0
 11 12  1  0
 11 30  1  0
 12 13  2  0
 12 14  1  0
 14 15  1  0
 14 31  1  0
 15 21  1  0
 15 16  2  0
 16 17  1  0
 16 32  1  0
 17 18  2  0
 17 33  1  0
 18 19  1  0
 18 20  1  0
 20 21  2  0
 20 34  1  0
 21 35  1  0
 22 23  2  0
 22 36  1  0
 23 24  1  0
 23 37  1  0
 24 25  2  0
 24 38  1  0
 26 27  1  0
 26 39  1  0
 27 28  2  0
 27 40  1  0
 28 41  1  0
M  END
