4d
     RDKit          3D

 72 76  0  0  1  0  0  0  0  0999 V2000
    0.6403    9.6482   20.4392 O   0  0  0  0  0  0  0  0  0  0  0  0
    1.2967    8.6358   20.1881 C   0  0  0  0  0  0  0  0  0  0  0  0
    0.8362    7.6661   19.3602 N   0  0  0  0  0  0  0  0  0  0  0  0
    1.5423    6.4099   19.0943 C   0  0  1  0  0  0  0  0  0  0  0  0
   -0.4536    7.7888   18.6757 C   0  0  1  0  0  0  0  0  0  0  0  0
    2.6853    8.4831   20.8433 C   0  0  1  0  0  0  0  0  0  0  0  0
    3.4392    9.8321   20.9158 C   0  0  1  0  0  0  0  0  0  0  0  0
    4.8067    9.6833   21.6032 C   0  0  1  0  0  0  0  0  0  0  0  0
    4.6431    9.0556   22.9986 C   0  0  2  0  0  0  0  0  0  0  0  0
    5.9371    8.9498   23.6665 N   0  0  0  0  0  0  0  0  0  0  0  0
    6.1291    8.7543   24.9764 C   0  0  0  0  0  0  0  0  0  0  0  0
    5.1750    8.6726   25.7526 O   0  0  0  0  0  0  0  0  0  0  0  0
    7.5762    8.6536   25.3359 C   0  0  0  0  0  0  0  0  0  0  0  0
    7.7832    8.1675   26.6025 N   0  0  0  0  0  0  0  0  0  0  0  0
    9.1212    8.0216   26.8693 C   0  0  0  0  0  0  0  0  0  0  0  0
    9.8158    7.5199   27.9770 C   0  0  0  0  0  0  0  0  0  0  0  0
   11.2159    7.4627   27.9387 C   0  0  0  0  0  0  0  0  0  0  0  0
   11.9059    7.8923   26.7903 C   0  0  0  0  0  0  0  0  0  0  0  0
   13.6191    7.7139   26.7205 Cl  0  0  0  0  0  0  0  0  0  0  0  0
    8.7894    8.8992   24.7528 C   0  0  0  0  0  0  0  0  0  0  0  0
    9.7838    8.4947   25.6941 C   0  0  0  0  0  0  0  0  0  0  0  0
   11.1984    8.4274   25.6906 C   0  0  0  0  0  0  0  0  0  0  0  0
    2.5413    7.8730   22.2586 C   0  0  1  0  0  0  0  0  0  0  0  0
    3.9054    7.6920   22.9536 C   0  0  1  0  0  0  0  0  0  0  0  0
    4.6898    6.7021   22.2148 N   0  0  0  0  0  0  0  0  0  0  0  0
    4.6247    5.3669   22.3610 C   0  0  0  0  0  0  0  0  0  0  0  0
    3.8571    4.8631   23.1809 O   0  0  0  0  0  0  0  0  0  0  0  0
    5.5468    4.6089   21.4508 C   0  0  0  0  0  0  0  0  0  0  0  0
    5.6483    2.8650   21.5803 S   0  0  0  0  0  0  0  0  0  0  0  0
    6.7661    3.0031   20.2336 C   0  0  0  0  0  0  0  0  0  0  0  0
    7.3586    1.7424   19.6806 C   0  0  1  0  0  0  0  0  0  0  0  0
    8.0122    2.0425   18.3760 N   0  0  2  0  0  0  0  0  0  0  0  0
    8.7777    0.8847   17.8882 C   0  0  1  0  0  0  0  0  0  0  0  0
    8.8298    3.2933   18.3667 C   0  0  1  0  0  0  0  0  0  0  0  0
    7.9883    4.5540   18.6952 C   0  0  1  0  0  0  0  0  0  0  0  0
    7.0435    4.2771   19.8292 C   0  0  0  0  0  0  0  0  0  0  0  0
    6.2926    5.2278   20.5253 N   0  0  0  0  0  0  0  0  0  0  0  0
    0.8879    5.6692   18.6325 H   0  0  0  0  0  0  0  0  0  0  0  0
    2.3795    6.5800   18.4163 H   0  0  0  0  0  0  0  0  0  0  0  0
    1.9238    5.9581   20.0105 H   0  0  0  0  0  0  0  0  0  0  0  0
   -1.2232    7.2503   19.2295 H   0  0  0  0  0  0  0  0  0  0  0  0
   -0.7818    8.8230   18.5609 H   0  0  0  0  0  0  0  0  0  0  0  0
    3.3041    7.8292   20.2304 H   0  0  0  0  0  0  0  0  0  0  0  0
    3.5774   10.2407   19.9140 H   0  0  0  0  0  0  0  0  0  0  0  0
    2.8477   10.5649   21.4660 H   0  0  0  0  0  0  0  0  0  0  0  0
    5.4659    9.0741   20.9840 H   0  0  0  0  0  0  0  0  0  0  0  0
    5.2809   10.6619   21.6863 H   0  0  0  0  0  0  0  0  0  0  0  0
    4.0320    9.7401   23.5894 H   0  0  0  0  0  0  0  0  0  0  0  0
    6.7563    8.9628   23.0748 H   0  0  0  0  0  0  0  0  0  0  0  0
    7.0205    7.8901   27.2093 H   0  0  0  0  0  0  0  0  0  0  0  0
    9.2711    7.1827   28.8435 H   0  0  0  0  0  0  0  0  0  0  0  0
   11.7549    7.0843   28.7928 H   0  0  0  0  0  0  0  0  0  0  0  0
    9.0150    9.2807   23.7689 H   0  0  0  0  0  0  0  0  0  0  0  0
   11.7407    8.7433   24.8122 H   0  0  0  0  0  0  0  0  0  0  0  0
    1.9167    8.5227   22.8740 H   0  0  0  0  0  0  0  0  0  0  0  0
    2.0173    6.9174   22.2134 H   0  0  0  0  0  0  0  0  0  0  0  0
    3.7337    7.3349   23.9703 H   0  0  0  0  0  0  0  0  0  0  0  0
    5.3547    7.0599   21.5447 H   0  0  0  0  0  0  0  0  0  0  0  0
    8.0724    1.3295   20.3919 H   0  0  0  0  0  0  0  0  0  0  0  0
    6.5715    1.0077   19.5213 H   0  0  0  0  0  0  0  0  0  0  0  0
    7.2663    2.1971   17.7092 H   0  0  0  0  0  0  0  0  0  0  0  0
    9.1840    1.1094   16.9068 H   0  0  0  0  0  0  0  0  0  0  0  0
    9.6004    0.6641   18.5671 H   0  0  0  0  0  0  0  0  0  0  0  0
    8.1464    0.0013   17.7982 H   0  0  0  0  0  0  0  0  0  0  0  0
    9.6377    3.1831   19.0886 H   0  0  0  0  0  0  0  0  0  0  0  0
    9.3001    3.4173   17.3913 H   0  0  0  0  0  0  0  0  0  0  0  0
    8.6384    5.3879   18.9564 H   0  0  0  0  0  0  0  0  0  0  0  0
    7.4036    4.8570   17.8261 H   0  0  0  0  0  0  0  0  0  0  0  0
   -0.3811    7.1975   17.2708 C   0  0  1  0  0  0  0  0  0  0  0  0
   -1.3760    7.3031   16.7699 H   0  0  0  0  0  0  0  0  0  0  0  0
    0.3953    7.7417   16.6767 H   0  0  0  0  0  0  0  0  0  0  0  0
   -0.1094    6.1140   17.3358 H   0  0  0  0  0  0  0  0  0  0  0  0
  1  2  2  0
  2  3  1  0
  2  6  1  0
  3  4  1  0
  3  5  1  0
  4 38  1  6
  4 39  1  0
  4 40  1  0
  5 41  1  1
  5 42  1  0
  5 69  1  0
  6  7  1  0
  6 23  1  0
  6 43  1  6
  7  8  1  0
  7 44  1  6
  7 45  1  0
  8  9  1  0
  8 46  1  6
  8 47  1  0
  9 10  1  0
  9 24  1  0
  9 48  1  1
 10 11  1  0
 10 49  1  0
 11 12  2  0
 11 13  1  0
 13 14  1  0
 13 20  2  0
 14 15  1  0
 14 50  1  0
 15 16  1  0
 15 21  2  0
 16 17  2  0
 16 51  1  0
 17 18  1  0
 17 52  1  0
 18 19  1  0
 18 22  2  0
 20 21  1  0
 20 53  1  0
 21 22  1  0
 22 54  1  0
 23 24  1  0
 23 55  1  1
 23 56  1  0
 24 25  1  0
 24 57  1  1
 25 26  1  0
 25 58  1  0
 26 27  2  0
 26 28  1  0
 28 29  1  0
 28 37  2  0
 29 30  1  0
 30 31  1  0
 30 36  2  0
 31 32  1  0
 31 59  1  1
 31 60  1  0
 32 33  1  0
 32 34  1  0
 32 61  1  6
 33 62  1  6
 33 63  1  0
 33 64  1  0
 34 35  1  0
 34 65  1  1
 34 66  1  0
 35 36  1  0
 35 67  1  1
 35 68  1  0
 36 37  1  0
 69 70  1  6
 69 71  1  0
 69 72  1  0
M  CHG  1  32   1
M  END
