Edoxaban
     RDKit          3D

 68 71  0  0  1  0  0  0  0  0999 V2000
    0.6454    9.6569   20.4560 O   0  0  0  0  0  0  0  0  0  0  0  0
    1.2930    8.6442   20.1966 C   0  0  0  0  0  0  0  0  0  0  0  0
    0.8268    7.6968   19.3481 N   0  0  0  0  0  0  0  0  0  0  0  0
    1.4903    6.4130   19.1040 C   0  0  1  0  0  0  0  0  0  0  0  0
   -0.4480    7.8944   18.6512 C   0  0  1  0  0  0  0  0  0  0  0  0
    2.6853    8.4831   20.8433 C   0  0  1  0  0  0  0  0  0  0  0  0
    3.4392    9.8321   20.9158 C   0  0  1  0  0  0  0  0  0  0  0  0
    4.8067    9.6833   21.6032 C   0  0  1  0  0  0  0  0  0  0  0  0
    4.6431    9.0556   22.9986 C   0  0  2  0  0  0  0  0  0  0  0  0
    5.9629    8.9737   23.6144 N   0  0  0  0  0  0  0  0  0  0  0  0
    6.2789    8.5075   24.8282 C   0  0  0  0  0  0  0  0  0  0  0  0
    5.5254    7.8995   25.5866 O   0  0  0  0  0  0  0  0  0  0  0  0
    7.7410    8.7810   25.2155 C   0  0  0  0  0  0  0  0  0  0  0  0
    8.2026    7.9657   26.1710 N   0  0  0  0  0  0  0  0  0  0  0  0
    9.5435    7.7742   26.5587 C   0  0  0  0  0  0  0  0  0  0  0  0
   10.5274    8.3581   25.7342 C   0  0  0  0  0  0  0  0  0  0  0  0
   11.8870    8.2162   26.0739 C   0  0  0  0  0  0  0  0  0  0  0  0
   12.2237    7.5153   27.2427 C   0  0  0  0  0  0  0  0  0  0  0  0
   13.8712    7.3176   27.7132 Cl  0  0  0  0  0  0  0  0  0  0  0  0
    9.8784    7.1265   27.6971 N   0  0  0  0  0  0  0  0  0  0  0  0
   11.1808    6.9817   28.0195 C   0  0  0  0  0  0  0  0  0  0  0  0
    2.5413    7.8730   22.2586 C   0  0  1  0  0  0  0  0  0  0  0  0
    3.9054    7.6920   22.9536 C   0  0  1  0  0  0  0  0  0  0  0  0
    4.6898    6.7021   22.2148 N   0  0  0  0  0  0  0  0  0  0  0  0
    4.6247    5.3669   22.3610 C   0  0  0  0  0  0  0  0  0  0  0  0
    3.8571    4.8631   23.1809 O   0  0  0  0  0  0  0  0  0  0  0  0
    5.5468    4.6089   21.4508 C   0  0  0  0  0  0  0  0  0  0  0  0
    5.6483    2.8650   21.5803 S   0  0  0  0  0  0  0  0  0  0  0  0
    6.7661    3.0031   20.2336 C   0  0  0  0  0  0  0  0  0  0  0  0
    7.3586    1.7424   19.6806 C   0  0  1  0  0  0  0  0  0  0  0  0
    8.0122    2.0425   18.3760 N   0  0  2  0  0  0  0  0  0  0  0  0
    8.7729    0.8849   17.8472 C   0  0  1  0  0  0  0  0  0  0  0  0
    8.8298    3.2933   18.3667 C   0  0  1  0  0  0  0  0  0  0  0  0
    7.9883    4.5540   18.6952 C   0  0  1  0  0  0  0  0  0  0  0  0
    7.0435    4.2771   19.8292 C   0  0  0  0  0  0  0  0  0  0  0  0
    6.2926    5.2278   20.5253 N   0  0  0  0  0  0  0  0  0  0  0  0
    0.8196    5.6892   18.6406 H   0  0  0  0  0  0  0  0  0  0  0  0
    2.3449    6.5473   18.4403 H   0  0  0  0  0  0  0  0  0  0  0  0
    1.8374    5.9607   20.0340 H   0  0  0  0  0  0  0  0  0  0  0  0
   -0.5721    7.2198   17.8044 H   0  0  0  0  0  0  0  0  0  0  0  0
   -1.2803    7.7363   19.3377 H   0  0  0  0  0  0  0  0  0  0  0  0
   -0.5290    8.9103   18.2599 H   0  0  0  0  0  0  0  0  0  0  0  0
    3.2926    7.8181   20.2318 H   0  0  0  0  0  0  0  0  0  0  0  0
    3.5750   10.2410   19.9139 H   0  0  0  0  0  0  0  0  0  0  0  0
    2.8464   10.5679   21.4632 H   0  0  0  0  0  0  0  0  0  0  0  0
    5.4568    9.0763   20.9725 H   0  0  0  0  0  0  0  0  0  0  0  0
    5.2802   10.6639   21.6713 H   0  0  0  0  0  0  0  0  0  0  0  0
    4.0418    9.7332   23.6086 H   0  0  0  0  0  0  0  0  0  0  0  0
    6.7243    9.4877   23.1868 H   0  0  0  0  0  0  0  0  0  0  0  0
    7.4878    7.4109   26.6203 H   0  0  0  0  0  0  0  0  0  0  0  0
   10.2587    8.8880   24.8326 H   0  0  0  0  0  0  0  0  0  0  0  0
   12.6595    8.6385   25.4493 H   0  0  0  0  0  0  0  0  0  0  0  0
   11.3948    6.4388   28.9292 H   0  0  0  0  0  0  0  0  0  0  0  0
    1.9165    8.5269   22.8701 H   0  0  0  0  0  0  0  0  0  0  0  0
    2.0088    6.9219   22.2167 H   0  0  0  0  0  0  0  0  0  0  0  0
    3.7144    7.3655   23.9783 H   0  0  0  0  0  0  0  0  0  0  0  0
    5.3523    7.0339   21.5306 H   0  0  0  0  0  0  0  0  0  0  0  0
    8.0825    1.3465   20.3961 H   0  0  0  0  0  0  0  0  0  0  0  0
    6.5830    0.9840   19.5625 H   0  0  0  0  0  0  0  0  0  0  0  0
    7.2573    2.2085   17.7238 H   0  0  0  0  0  0  0  0  0  0  0  0
    9.1534    1.0904   16.8455 H   0  0  0  0  0  0  0  0  0  0  0  0
    9.6233    0.6421   18.4881 H   0  0  0  0  0  0  0  0  0  0  0  0
    8.1389   -0.0008   17.7803 H   0  0  0  0  0  0  0  0  0  0  0  0
    9.6305    3.1939   19.1022 H   0  0  0  0  0  0  0  0  0  0  0  0
    9.3125    3.4322   17.3976 H   0  0  0  0  0  0  0  0  0  0  0  0
    8.6447    5.3900   18.9408 H   0  0  0  0  0  0  0  0  0  0  0  0
    7.4184    4.8640   17.8178 H   0  0  0  0  0  0  0  0  0  0  0  0
    8.3539    9.6997   24.6674 O   0  0  0  0  0  0  0  0  0  0  0  0
  1  2  2  0
  2  3  1  0
  2  6  1  0
  3  4  1  0
  3  5  1  0
  4 37  1  6
  4 38  1  0
  4 39  1  0
  5 40  1  6
  5 41  1  0
  5 42  1  0
  6  7  1  0
  6 22  1  0
  6 43  1  6
  7  8  1  0
  7 44  1  6
  7 45  1  0
  8  9  1  0
  8 46  1  6
  8 47  1  0
  9 10  1  0
  9 23  1  0
  9 48  1  1
 10 11  1  0
 10 49  1  0
 11 12  2  0
 11 13  1  0
 13 14  1  0
 13 68  2  0
 14 15  1  0
 14 50  1  0
 15 16  1  0
 15 20  2  0
 16 17  2  0
 16 51  1  0
 17 18  1  0
 17 52  1  0
 18 19  1  0
 18 21  2  0
 20 21  1  0
 21 53  1  0
 22 23  1  0
 22 54  1  1
 22 55  1  0
 23 24  1  0
 23 56  1  1
 24 25  1  0
 24 57  1  0
 25 26  2  0
 25 27  1  0
 27 28  1  0
 27 36  2  0
 28 29  1  0
 29 30  1  0
 29 35  2  0
 30 31  1  0
 30 58  1  1
 30 59  1  0
 31 32  1  0
 31 33  1  0
 31 60  1  6
 32 61  1  6
 32 62  1  0
 32 63  1  0
 33 34  1  0
 33 64  1  1
 33 65  1  0
 34 35  1  0
 34 66  1  1
 34 67  1  0
 35 36  1  0
M  CHG  1  31   1
M  END
