8p
     RDKit          3D

 68 72  0  0  1  0  0  0  0  0999 V2000
    6.2855    8.8158   24.5425 C   0  0  0  0  0  0  0  0  0  0  0  0
    5.9555    8.4860   23.2992 N   0  0  0  0  0  0  0  0  0  0  0  0
    4.5919    8.5353   22.7929 C   0  0  2  0  0  0  0  0  0  0  0  0
    5.4502    9.1670   25.3675 O   0  0  0  0  0  0  0  0  0  0  0  0
    4.0044    7.1129   22.7896 C   0  0  1  0  0  0  0  0  0  0  0  0
    2.5673    7.1147   22.2141 C   0  0  2  0  0  0  0  0  0  0  0  0
    2.5176    7.7475   20.7918 C   0  0  2  0  0  0  0  0  0  0  0  0
    3.0864    9.1992   20.8182 C   0  0  2  0  0  0  0  0  0  0  0  0
    4.5137    9.2180   21.4048 C   0  0  2  0  0  0  0  0  0  0  0  0
    4.9086    6.2192   22.0720 N   0  0  0  0  0  0  0  0  0  0  0  0
    4.9259    4.8938   22.1857 C   0  0  0  0  0  0  0  0  0  0  0  0
    5.6646    4.2415   21.1209 C   0  0  0  0  0  0  0  0  0  0  0  0
    4.2645    4.2831   23.0259 O   0  0  0  0  0  0  0  0  0  0  0  0
    6.1759    4.7911   20.0362 N   0  0  0  0  0  0  0  0  0  0  0  0
    6.0592    2.5553   21.3175 S   0  0  0  0  0  0  0  0  0  0  0  0
    6.7022    8.2544   22.6620 H   0  0  0  0  0  0  0  0  0  0  0  0
    3.9673    9.1381   23.4619 H   0  0  0  0  0  0  0  0  0  0  0  0
    5.4908    6.6206   21.3528 H   0  0  0  0  0  0  0  0  0  0  0  0
    6.9158    3.9548   19.3541 C   0  0  0  0  0  0  0  0  0  0  0  0
    7.0250    2.6811   19.8872 C   0  0  0  0  0  0  0  0  0  0  0  0
    7.9001    1.6220   19.2816 C   0  0  2  0  0  0  0  0  0  0  0  0
    7.9386    1.8694   17.8345 N   0  0  0  0  0  0  0  0  0  0  0  0
    8.5061    3.1995   17.5565 C   0  0  2  0  0  0  0  0  0  0  0  0
    7.5778    4.3412   18.0470 C   0  0  2  0  0  0  0  0  0  0  0  0
    8.7498    0.8506   17.1984 C   0  0  1  0  0  0  0  0  0  0  0  0
    7.4924    0.6421   19.5037 H   0  0  0  0  0  0  0  0  0  0  0  0
    8.8987    1.6411   19.7244 H   0  0  0  0  0  0  0  0  0  0  0  0
    8.6778    3.3302   16.4860 H   0  0  0  0  0  0  0  0  0  0  0  0
    9.4902    3.2989   18.0226 H   0  0  0  0  0  0  0  0  0  0  0  0
    8.1484    5.2601   18.1569 H   0  0  0  0  0  0  0  0  0  0  0  0
    6.8161    4.5354   17.2926 H   0  0  0  0  0  0  0  0  0  0  0  0
    8.8052    1.0695   16.1341 H   0  0  0  0  0  0  0  0  0  0  0  0
    9.7610    0.8192   17.6086 H   0  0  0  0  0  0  0  0  0  0  0  0
    8.3099   -0.1391   17.3015 H   0  0  0  0  0  0  0  0  0  0  0  0
    1.0676    7.6910   20.2329 C   0  0  0  0  0  0  0  0  0  0  0  0
    0.3104    8.6412   20.4535 O   0  0  0  0  0  0  0  0  0  0  0  0
    0.6523    6.6056   19.5256 N   0  0  0  0  0  0  0  0  0  0  0  0
   -0.6704    6.5489   18.8879 C   0  0  1  0  0  0  0  0  0  0  0  0
    1.4912    5.4400   19.2160 C   0  0  1  0  0  0  0  0  0  0  0  0
    1.9148    7.6716   22.8889 H   0  0  0  0  0  0  0  0  0  0  0  0
    2.1778    6.0972   22.2014 H   0  0  0  0  0  0  0  0  0  0  0  0
    3.1372    7.1752   20.1018 H   0  0  0  0  0  0  0  0  0  0  0  0
    2.4464    9.8436   21.4236 H   0  0  0  0  0  0  0  0  0  0  0  0
    3.0887    9.6253   19.8165 H   0  0  0  0  0  0  0  0  0  0  0  0
    5.1953    8.7263   20.7088 H   0  0  0  0  0  0  0  0  0  0  0  0
    4.8606   10.2500   21.4809 H   0  0  0  0  0  0  0  0  0  0  0  0
   -1.1846    5.6238   19.1522 H   0  0  0  0  0  0  0  0  0  0  0  0
   -1.3260    7.3725   19.1766 H   0  0  0  0  0  0  0  0  0  0  0  0
   -0.5707    6.5750   17.8018 H   0  0  0  0  0  0  0  0  0  0  0  0
    2.0145    5.5847   18.2697 H   0  0  0  0  0  0  0  0  0  0  0  0
    2.2331    5.2304   19.9873 H   0  0  0  0  0  0  0  0  0  0  0  0
    0.8860    4.5368   19.1237 H   0  0  0  0  0  0  0  0  0  0  0  0
    3.9554    6.7753   23.8306 H   0  0  0  0  0  0  0  0  0  0  0  0
    7.6932    8.6792   24.8180 C   0  0  0  0  0  0  0  0  0  0  0  0
    8.7708    9.0755   24.0342 C   0  0  0  0  0  0  0  0  0  0  0  0
    8.2023    8.2251   26.0154 N   0  0  0  0  0  0  0  0  0  0  0  0
    8.6929    9.5350   23.0596 H   0  0  0  0  0  0  0  0  0  0  0  0
    7.5895    7.9273   26.7604 H   0  0  0  0  0  0  0  0  0  0  0  0
    9.9753    8.7575   24.7358 C   0  0  0  0  0  0  0  0  0  0  0  0
    9.5831    8.1905   25.9850 C   0  0  0  0  0  0  0  0  0  0  0  0
   10.5198    7.7294   26.9175 C   0  0  0  0  0  0  0  0  0  0  0  0
   11.8695    7.8672   26.5785 C   0  0  0  0  0  0  0  0  0  0  0  0
   12.2739    8.4432   25.3759 C   0  0  0  0  0  0  0  0  0  0  0  0
   11.3403    8.8915   24.4455 C   0  0  0  0  0  0  0  0  0  0  0  0
   10.2249    7.2834   27.8554 H   0  0  0  0  0  0  0  0  0  0  0  0
   12.6294    7.5241   27.2663 H   0  0  0  0  0  0  0  0  0  0  0  0
   14.1169    8.6196   24.9961 Br  0  0  0  0  0  0  0  0  0  0  0  0
   11.6674    9.3311   23.5161 H   0  0  0  0  0  0  0  0  0  0  0  0
  1  2  1  0
  1  4  2  0
  1 54  1  0
  2  3  1  0
  2 16  1  0
  3  5  1  0
  3  9  1  0
  3 17  1  1
  5  6  1  0
  5 10  1  0
  5 53  1  1
  6  7  1  0
  6 40  1  1
  6 41  1  0
  7  8  1  0
  7 35  1  0
  7 42  1  6
  8  9  1  0
  8 43  1  1
  8 44  1  0
  9 45  1  6
  9 46  1  0
 10 11  1  0
 10 18  1  0
 11 12  1  0
 11 13  2  0
 12 14  2  0
 12 15  1  0
 14 19  1  0
 15 20  1  0
 19 20  2  0
 19 24  1  0
 20 21  1  0
 21 22  1  0
 21 26  1  6
 21 27  1  0
 22 23  1  0
 22 25  1  0
 23 24  1  0
 23 28  1  6
 23 29  1  0
 24 30  1  1
 24 31  1  0
 25 32  1  6
 25 33  1  0
 25 34  1  0
 35 36  2  0
 35 37  1  0
 37 38  1  0
 37 39  1  0
 38 47  1  6
 38 48  1  0
 38 49  1  0
 39 50  1  6
 39 51  1  0
 39 52  1  0
 54 55  2  0
 54 56  1  0
 55 57  1  0
 55 59  1  0
 56 58  1  0
 56 60  1  0
 59 60  2  0
 59 64  1  0
 60 61  1  0
 61 62  2  0
 61 65  1  0
 62 63  1  0
 62 66  1  0
 63 64  2  0
 63 67  1  0
 64 68  1  0
M  END
