5c
     RDKit          3D

 69 73  0  0  1  0  0  0  0  0999 V2000
   10.5203    8.4433   25.1852 C   0  0  0  0  0  0  0  0  0  0  0  0
   14.1059    7.5218   26.7353 Cl  0  0  0  0  0  0  0  0  0  0  0  0
    9.6207    7.9857   26.1956 C   0  0  0  0  0  0  0  0  0  0  0  0
    8.2267    8.1460   25.9973 C   0  0  0  0  0  0  0  0  0  0  0  0
    7.7732    8.7180   24.8067 C   0  0  0  0  0  0  0  0  0  0  0  0
    8.6217    9.1490   23.8295 N   0  0  0  0  0  0  0  0  0  0  0  0
    9.9499    9.0256   24.0349 C   0  0  0  0  0  0  0  0  0  0  0  0
   10.1509    7.3804   27.3597 C   0  0  0  0  0  0  0  0  0  0  0  0
   11.5311    7.2465   27.5105 C   0  0  0  0  0  0  0  0  0  0  0  0
   12.4039    7.6999   26.5246 C   0  0  0  0  0  0  0  0  0  0  0  0
   11.9152    8.2949   25.3658 C   0  0  0  0  0  0  0  0  0  0  0  0
    6.2929    8.8274   24.5343 C   0  0  0  0  0  0  0  0  0  0  0  0
    5.9551    8.4855   23.2994 N   0  0  0  0  0  0  0  0  0  0  0  0
    4.5920    8.5353   22.7929 C   0  0  2  0  0  0  0  0  0  0  0  0
    5.4501    9.1670   25.3673 O   0  0  0  0  0  0  0  0  0  0  0  0
    4.0043    7.1129   22.7895 C   0  0  1  0  0  0  0  0  0  0  0  0
    2.5673    7.1162   22.2122 C   0  0  2  0  0  0  0  0  0  0  0  0
    2.5176    7.7475   20.7918 C   0  0  2  0  0  0  0  0  0  0  0  0
    3.0852    9.1956   20.8192 C   0  0  2  0  0  0  0  0  0  0  0  0
    4.5136    9.2181   21.4048 C   0  0  2  0  0  0  0  0  0  0  0  0
    4.9085    6.2184   22.0719 N   0  0  0  0  0  0  0  0  0  0  0  0
    4.9264    4.8949   22.1858 C   0  0  0  0  0  0  0  0  0  0  0  0
    5.6646    4.2415   21.1209 C   0  0  0  0  0  0  0  0  0  0  0  0
    4.2645    4.2831   23.0259 O   0  0  0  0  0  0  0  0  0  0  0  0
    6.1759    4.7911   20.0362 N   0  0  0  0  0  0  0  0  0  0  0  0
    6.0592    2.5553   21.3175 S   0  0  0  0  0  0  0  0  0  0  0  0
    7.5261    7.7992   26.7421 H   0  0  0  0  0  0  0  0  0  0  0  0
   10.5891    9.3955   23.2463 H   0  0  0  0  0  0  0  0  0  0  0  0
    9.4762    7.0241   28.1243 H   0  0  0  0  0  0  0  0  0  0  0  0
   11.9341    6.7846   28.3999 H   0  0  0  0  0  0  0  0  0  0  0  0
   12.5961    8.6409   24.6029 H   0  0  0  0  0  0  0  0  0  0  0  0
    6.7023    8.2545   22.6620 H   0  0  0  0  0  0  0  0  0  0  0  0
    3.9674    9.1381   23.4619 H   0  0  0  0  0  0  0  0  0  0  0  0
    5.4908    6.6206   21.3529 H   0  0  0  0  0  0  0  0  0  0  0  0
    6.9158    3.9548   19.3541 C   0  0  0  0  0  0  0  0  0  0  0  0
    7.0250    2.6811   19.8872 C   0  0  0  0  0  0  0  0  0  0  0  0
    7.9001    1.6220   19.2816 C   0  0  2  0  0  0  0  0  0  0  0  0
    7.9386    1.8694   17.8345 N   0  0  0  0  0  0  0  0  0  0  0  0
    8.5061    3.1995   17.5565 C   0  0  2  0  0  0  0  0  0  0  0  0
    7.5778    4.3412   18.0470 C   0  0  2  0  0  0  0  0  0  0  0  0
    8.7498    0.8506   17.1984 C   0  0  1  0  0  0  0  0  0  0  0  0
    7.4924    0.6421   19.5037 H   0  0  0  0  0  0  0  0  0  0  0  0
    8.8987    1.6411   19.7244 H   0  0  0  0  0  0  0  0  0  0  0  0
    8.6778    3.3302   16.4860 H   0  0  0  0  0  0  0  0  0  0  0  0
    9.4902    3.2989   18.0226 H   0  0  0  0  0  0  0  0  0  0  0  0
    8.1484    5.2601   18.1569 H   0  0  0  0  0  0  0  0  0  0  0  0
    6.8161    4.5354   17.2926 H   0  0  0  0  0  0  0  0  0  0  0  0
    8.8052    1.0695   16.1341 H   0  0  0  0  0  0  0  0  0  0  0  0
    9.7610    0.8192   17.6086 H   0  0  0  0  0  0  0  0  0  0  0  0
    8.3099   -0.1391   17.3015 H   0  0  0  0  0  0  0  0  0  0  0  0
    1.0676    7.6910   20.2329 C   0  0  0  0  0  0  0  0  0  0  0  0
    0.3104    8.6412   20.4535 O   0  0  0  0  0  0  0  0  0  0  0  0
    0.6523    6.6056   19.5256 N   0  0  0  0  0  0  0  0  0  0  0  0
   -0.6704    6.5489   18.8879 C   0  0  1  0  0  0  0  0  0  0  0  0
    1.4912    5.4400   19.2160 C   0  0  1  0  0  0  0  0  0  0  0  0
    1.9149    7.6716   22.8889 H   0  0  0  0  0  0  0  0  0  0  0  0
    2.1778    6.0972   22.2014 H   0  0  0  0  0  0  0  0  0  0  0  0
    3.1372    7.1752   20.1018 H   0  0  0  0  0  0  0  0  0  0  0  0
    2.4464    9.8436   21.4236 H   0  0  0  0  0  0  0  0  0  0  0  0
    3.0887    9.6253   19.8165 H   0  0  0  0  0  0  0  0  0  0  0  0
    5.1953    8.7263   20.7088 H   0  0  0  0  0  0  0  0  0  0  0  0
    4.8606   10.2500   21.4809 H   0  0  0  0  0  0  0  0  0  0  0  0
   -1.1846    5.6238   19.1522 H   0  0  0  0  0  0  0  0  0  0  0  0
   -1.3260    7.3725   19.1766 H   0  0  0  0  0  0  0  0  0  0  0  0
   -0.5707    6.5750   17.8018 H   0  0  0  0  0  0  0  0  0  0  0  0
    2.0145    5.5847   18.2697 H   0  0  0  0  0  0  0  0  0  0  0  0
    2.2331    5.2304   19.9873 H   0  0  0  0  0  0  0  0  0  0  0  0
    0.8860    4.5368   19.1237 H   0  0  0  0  0  0  0  0  0  0  0  0
    3.9555    6.7753   23.8306 H   0  0  0  0  0  0  0  0  0  0  0  0
  1  3  1  0
  1  7  1  0
  1 11  2  0
  2 10  1  0
  3  4  1  0
  3  8  2  0
  4  5  2  0
  4 27  1  0
  5  6  1  0
  5 12  1  0
  6  7  2  0
  7 28  1  0
  8  9  1  0
  8 29  1  0
  9 10  2  0
  9 30  1  0
 10 11  1  0
 11 31  1  0
 12 13  1  0
 12 15  2  0
 13 14  1  0
 13 32  1  0
 14 16  1  0
 14 20  1  0
 14 33  1  1
 16 17  1  0
 16 21  1  0
 16 69  1  1
 17 18  1  0
 17 56  1  1
 17 57  1  0
 18 19  1  0
 18 51  1  0
 18 58  1  6
 19 20  1  0
 19 59  1  1
 19 60  1  0
 20 61  1  6
 20 62  1  0
 21 22  1  0
 21 34  1  0
 22 23  1  0
 22 24  2  0
 23 25  2  0
 23 26  1  0
 25 35  1  0
 26 36  1  0
 35 36  2  0
 35 40  1  0
 36 37  1  0
 37 38  1  0
 37 42  1  6
 37 43  1  0
 38 39  1  0
 38 41  1  0
 39 40  1  0
 39 44  1  6
 39 45  1  0
 40 46  1  1
 40 47  1  0
 41 48  1  6
 41 49  1  0
 41 50  1  0
 51 52  2  0
 51 53  1  0
 53 54  1  0
 53 55  1  0
 54 63  1  6
 54 64  1  0
 54 65  1  0
 55 66  1  6
 55 67  1  0
 55 68  1  0
M  END
