5k
     RDKit          3D

 70 74  0  0  1  0  0  0  0  0999 V2000
   10.6381    8.4211   25.2912 C   0  0  0  0  0  0  0  0  0  0  0  0
   14.0487    7.3441   27.0714 Cl  0  0  0  0  0  0  0  0  0  0  0  0
    9.6544    8.0062   26.1905 C   0  0  0  0  0  0  0  0  0  0  0  0
    8.2988    8.2210   25.9028 N   0  0  0  0  0  0  0  0  0  0  0  0
    7.7894    8.8040   24.7519 C   0  0  0  0  0  0  0  0  0  0  0  0
    8.4911    9.2695   23.8038 N   0  0  0  0  0  0  0  0  0  0  0  0
   10.0460    7.3739   27.3755 C   0  0  0  0  0  0  0  0  0  0  0  0
   11.4059    7.1720   27.6498 C   0  0  0  0  0  0  0  0  0  0  0  0
   12.3762    7.5928   26.7397 C   0  0  0  0  0  0  0  0  0  0  0  0
   11.9915    8.2153   25.5571 C   0  0  0  0  0  0  0  0  0  0  0  0
    6.3120    8.8418   24.5378 C   0  0  0  0  0  0  0  0  0  0  0  0
    5.9550    8.4856   23.2993 N   0  0  0  0  0  0  0  0  0  0  0  0
    4.5919    8.5353   22.7929 C   0  0  2  0  0  0  0  0  0  0  0  0
    5.4503    9.1669   25.3674 O   0  0  0  0  0  0  0  0  0  0  0  0
    4.0044    7.1129   22.7896 C   0  0  1  0  0  0  0  0  0  0  0  0
    2.5673    7.1154   22.2133 C   0  0  2  0  0  0  0  0  0  0  0  0
    2.5176    7.7475   20.7918 C   0  0  2  0  0  0  0  0  0  0  0  0
    3.0858    9.1973   20.8187 C   0  0  2  0  0  0  0  0  0  0  0  0
    4.5137    9.2181   21.4048 C   0  0  2  0  0  0  0  0  0  0  0  0
    4.9085    6.2189   22.0721 N   0  0  0  0  0  0  0  0  0  0  0  0
    4.9261    4.8943   22.1857 C   0  0  0  0  0  0  0  0  0  0  0  0
    5.6646    4.2415   21.1209 C   0  0  0  0  0  0  0  0  0  0  0  0
    4.2645    4.2831   23.0259 O   0  0  0  0  0  0  0  0  0  0  0  0
    6.1759    4.7911   20.0362 N   0  0  0  0  0  0  0  0  0  0  0  0
    6.0592    2.5553   21.3175 S   0  0  0  0  0  0  0  0  0  0  0  0
    9.3108    7.0389   28.0926 H   0  0  0  0  0  0  0  0  0  0  0  0
   11.7197    6.6915   28.5648 H   0  0  0  0  0  0  0  0  0  0  0  0
   12.7390    8.5428   24.8453 H   0  0  0  0  0  0  0  0  0  0  0  0
    6.7023    8.2545   22.6619 H   0  0  0  0  0  0  0  0  0  0  0  0
    3.9673    9.1381   23.4619 H   0  0  0  0  0  0  0  0  0  0  0  0
    5.4907    6.6206   21.3528 H   0  0  0  0  0  0  0  0  0  0  0  0
    6.9158    3.9548   19.3541 C   0  0  0  0  0  0  0  0  0  0  0  0
    7.0250    2.6811   19.8872 C   0  0  0  0  0  0  0  0  0  0  0  0
    7.9001    1.6220   19.2816 C   0  0  2  0  0  0  0  0  0  0  0  0
    7.9386    1.8694   17.8345 N   0  0  0  0  0  0  0  0  0  0  0  0
    8.5061    3.1995   17.5565 C   0  0  2  0  0  0  0  0  0  0  0  0
    7.5778    4.3412   18.0470 C   0  0  2  0  0  0  0  0  0  0  0  0
    8.7498    0.8506   17.1984 C   0  0  1  0  0  0  0  0  0  0  0  0
    7.4924    0.6421   19.5037 H   0  0  0  0  0  0  0  0  0  0  0  0
    8.8987    1.6411   19.7244 H   0  0  0  0  0  0  0  0  0  0  0  0
    8.6778    3.3302   16.4860 H   0  0  0  0  0  0  0  0  0  0  0  0
    9.4902    3.2989   18.0226 H   0  0  0  0  0  0  0  0  0  0  0  0
    8.1484    5.2601   18.1569 H   0  0  0  0  0  0  0  0  0  0  0  0
    6.8161    4.5354   17.2926 H   0  0  0  0  0  0  0  0  0  0  0  0
    8.8052    1.0695   16.1341 H   0  0  0  0  0  0  0  0  0  0  0  0
    9.7610    0.8192   17.6086 H   0  0  0  0  0  0  0  0  0  0  0  0
    8.3099   -0.1391   17.3015 H   0  0  0  0  0  0  0  0  0  0  0  0
    1.0676    7.6910   20.2329 C   0  0  0  0  0  0  0  0  0  0  0  0
    0.3104    8.6412   20.4535 O   0  0  0  0  0  0  0  0  0  0  0  0
    0.6523    6.6056   19.5256 N   0  0  0  0  0  0  0  0  0  0  0  0
   -0.6704    6.5489   18.8879 C   0  0  1  0  0  0  0  0  0  0  0  0
    1.4912    5.4400   19.2160 C   0  0  1  0  0  0  0  0  0  0  0  0
    1.9149    7.6716   22.8889 H   0  0  0  0  0  0  0  0  0  0  0  0
    2.1778    6.0972   22.2014 H   0  0  0  0  0  0  0  0  0  0  0  0
    3.1372    7.1752   20.1018 H   0  0  0  0  0  0  0  0  0  0  0  0
    2.4464    9.8436   21.4236 H   0  0  0  0  0  0  0  0  0  0  0  0
    3.0887    9.6253   19.8165 H   0  0  0  0  0  0  0  0  0  0  0  0
    5.1953    8.7264   20.7088 H   0  0  0  0  0  0  0  0  0  0  0  0
    4.8606   10.2500   21.4809 H   0  0  0  0  0  0  0  0  0  0  0  0
   -1.1846    5.6238   19.1522 H   0  0  0  0  0  0  0  0  0  0  0  0
   -1.3260    7.3725   19.1766 H   0  0  0  0  0  0  0  0  0  0  0  0
   -0.5707    6.5750   17.8018 H   0  0  0  0  0  0  0  0  0  0  0  0
    2.0145    5.5847   18.2697 H   0  0  0  0  0  0  0  0  0  0  0  0
    2.2331    5.2304   19.9873 H   0  0  0  0  0  0  0  0  0  0  0  0
    0.8860    4.5368   19.1237 H   0  0  0  0  0  0  0  0  0  0  0  0
    3.9554    6.7753   23.8306 H   0  0  0  0  0  0  0  0  0  0  0  0
    7.6132    7.9623   26.5954 H   0  0  0  0  0  0  0  0  0  0  0  0
   10.2285    9.2238   23.7755 S   0  0  1  0  0  0  0  0  0  0  0  0
   10.7619   10.5862   23.8294 O   0  0  0  0  0  0  0  0  0  0  0  0
   10.6694    8.3540   22.6835 O   0  0  0  0  0  0  0  0  0  0  0  0
  1  3  1  0
  1 10  2  0
  1 68  1  0
  2  9  1  0
  3  4  1  0
  3  7  2  0
  4  5  1  0
  4 67  1  0
  5  6  2  0
  5 11  1  0
 68  6  1  1
  7  8  1  0
  7 26  1  0
  8  9  2  0
  8 27  1  0
  9 10  1  0
 10 28  1  0
 11 12  1  0
 11 14  2  0
 12 13  1  0
 12 29  1  0
 13 15  1  0
 13 19  1  0
 13 30  1  1
 15 16  1  0
 15 20  1  0
 15 66  1  1
 16 17  1  0
 16 53  1  1
 16 54  1  0
 17 18  1  0
 17 48  1  0
 17 55  1  6
 18 19  1  0
 18 56  1  1
 18 57  1  0
 19 58  1  6
 19 59  1  0
 20 21  1  0
 20 31  1  0
 21 22  1  0
 21 23  2  0
 22 24  2  0
 22 25  1  0
 24 32  1  0
 25 33  1  0
 32 33  2  0
 32 37  1  0
 33 34  1  0
 34 35  1  0
 34 39  1  6
 34 40  1  0
 35 36  1  0
 35 38  1  0
 36 37  1  0
 36 41  1  6
 36 42  1  0
 37 43  1  1
 37 44  1  0
 38 45  1  6
 38 46  1  0
 38 47  1  0
 48 49  2  0
 48 50  1  0
 50 51  1  0
 50 52  1  0
 51 60  1  6
 51 61  1  0
 51 62  1  0
 52 63  1  6
 52 64  1  0
 52 65  1  0
 68 69  2  0
 68 70  2  0
M  END
