8c
     RDKit          3D

 67 71  0  0  1  0  0  0  0  0999 V2000
    6.2811    8.7962   24.5510 C   0  0  0  0  0  0  0  0  0  0  0  0
    5.9556    8.4861   23.2992 N   0  0  0  0  0  0  0  0  0  0  0  0
    4.5919    8.5353   22.7929 C   0  0  2  0  0  0  0  0  0  0  0  0
    5.4502    9.1671   25.3675 O   0  0  0  0  0  0  0  0  0  0  0  0
    4.0043    7.1129   22.7897 C   0  0  1  0  0  0  0  0  0  0  0  0
    2.5672    7.1139   22.2152 C   0  0  2  0  0  0  0  0  0  0  0  0
    2.5176    7.7475   20.7918 C   0  0  2  0  0  0  0  0  0  0  0  0
    3.0871    9.2011   20.8177 C   0  0  2  0  0  0  0  0  0  0  0  0
    4.5137    9.2180   21.4048 C   0  0  2  0  0  0  0  0  0  0  0  0
    4.9088    6.2197   22.0719 N   0  0  0  0  0  0  0  0  0  0  0  0
    4.9255    4.8932   22.1856 C   0  0  0  0  0  0  0  0  0  0  0  0
    5.6646    4.2415   21.1209 C   0  0  0  0  0  0  0  0  0  0  0  0
    4.2645    4.2831   23.0259 O   0  0  0  0  0  0  0  0  0  0  0  0
    6.1759    4.7911   20.0362 N   0  0  0  0  0  0  0  0  0  0  0  0
    6.0592    2.5553   21.3175 S   0  0  0  0  0  0  0  0  0  0  0  0
    6.7022    8.2544   22.6620 H   0  0  0  0  0  0  0  0  0  0  0  0
    3.9673    9.1381   23.4619 H   0  0  0  0  0  0  0  0  0  0  0  0
    5.4908    6.6207   21.3528 H   0  0  0  0  0  0  0  0  0  0  0  0
    6.9158    3.9548   19.3541 C   0  0  0  0  0  0  0  0  0  0  0  0
    7.0250    2.6811   19.8872 C   0  0  0  0  0  0  0  0  0  0  0  0
    7.9001    1.6220   19.2816 C   0  0  2  0  0  0  0  0  0  0  0  0
    7.9386    1.8694   17.8345 N   0  0  0  0  0  0  0  0  0  0  0  0
    8.5061    3.1995   17.5565 C   0  0  2  0  0  0  0  0  0  0  0  0
    7.5778    4.3412   18.0470 C   0  0  2  0  0  0  0  0  0  0  0  0
    8.7498    0.8506   17.1984 C   0  0  1  0  0  0  0  0  0  0  0  0
    7.4924    0.6421   19.5037 H   0  0  0  0  0  0  0  0  0  0  0  0
    8.8987    1.6411   19.7244 H   0  0  0  0  0  0  0  0  0  0  0  0
    8.6778    3.3302   16.4860 H   0  0  0  0  0  0  0  0  0  0  0  0
    9.4902    3.2989   18.0226 H   0  0  0  0  0  0  0  0  0  0  0  0
    8.1484    5.2601   18.1569 H   0  0  0  0  0  0  0  0  0  0  0  0
    6.8161    4.5354   17.2926 H   0  0  0  0  0  0  0  0  0  0  0  0
    8.8052    1.0695   16.1341 H   0  0  0  0  0  0  0  0  0  0  0  0
    9.7610    0.8192   17.6086 H   0  0  0  0  0  0  0  0  0  0  0  0
    8.3099   -0.1391   17.3015 H   0  0  0  0  0  0  0  0  0  0  0  0
    1.0676    7.6910   20.2329 C   0  0  0  0  0  0  0  0  0  0  0  0
    0.3104    8.6412   20.4535 O   0  0  0  0  0  0  0  0  0  0  0  0
    0.6523    6.6056   19.5256 N   0  0  0  0  0  0  0  0  0  0  0  0
   -0.6704    6.5489   18.8879 C   0  0  1  0  0  0  0  0  0  0  0  0
    1.4912    5.4400   19.2160 C   0  0  1  0  0  0  0  0  0  0  0  0
    1.9148    7.6716   22.8889 H   0  0  0  0  0  0  0  0  0  0  0  0
    2.1778    6.0972   22.2014 H   0  0  0  0  0  0  0  0  0  0  0  0
    3.1372    7.1752   20.1018 H   0  0  0  0  0  0  0  0  0  0  0  0
    2.4464    9.8436   21.4236 H   0  0  0  0  0  0  0  0  0  0  0  0
    3.0887    9.6253   19.8165 H   0  0  0  0  0  0  0  0  0  0  0  0
    5.1953    8.7263   20.7088 H   0  0  0  0  0  0  0  0  0  0  0  0
    4.8606   10.2500   21.4809 H   0  0  0  0  0  0  0  0  0  0  0  0
   -1.1846    5.6238   19.1522 H   0  0  0  0  0  0  0  0  0  0  0  0
   -1.3260    7.3725   19.1766 H   0  0  0  0  0  0  0  0  0  0  0  0
   -0.5707    6.5750   17.8018 H   0  0  0  0  0  0  0  0  0  0  0  0
    2.0145    5.5847   18.2697 H   0  0  0  0  0  0  0  0  0  0  0  0
    2.2331    5.2304   19.9873 H   0  0  0  0  0  0  0  0  0  0  0  0
    0.8860    4.5368   19.1237 H   0  0  0  0  0  0  0  0  0  0  0  0
    3.9554    6.7753   23.8306 H   0  0  0  0  0  0  0  0  0  0  0  0
    7.6462    8.5808   24.9238 C   0  0  0  0  0  0  0  0  0  0  0  0
    8.6937    8.9447   24.1087 O   0  0  0  0  0  0  0  0  0  0  0  0
    8.0964    8.1035   26.1405 C   0  0  0  0  0  0  0  0  0  0  0  0
    9.8364    8.6657   24.8211 C   0  0  0  0  0  0  0  0  0  0  0  0
    9.5113    8.1114   26.0836 C   0  0  0  0  0  0  0  0  0  0  0  0
   10.5317    7.7229   26.9534 C   0  0  0  0  0  0  0  0  0  0  0  0
   11.8501    7.9033   26.5443 C   0  0  0  0  0  0  0  0  0  0  0  0
   12.1622    8.4701   25.3057 C   0  0  0  0  0  0  0  0  0  0  0  0
   11.1612    8.8691   24.4129 C   0  0  0  0  0  0  0  0  0  0  0  0
   10.2879    7.2925   27.9099 H   0  0  0  0  0  0  0  0  0  0  0  0
   12.6486    7.5997   27.2046 H   0  0  0  0  0  0  0  0  0  0  0  0
   13.8223    8.6710   24.8755 Cl  0  0  0  0  0  0  0  0  0  0  0  0
   11.4062    9.3085   23.4587 H   0  0  0  0  0  0  0  0  0  0  0  0
    7.4503    7.7791   26.9444 H   0  0  0  0  0  0  0  0  0  0  0  0
  1  2  1  0
  1  4  2  0
  1 54  1  0
  2  3  1  0
  2 16  1  0
  3  5  1  0
  3  9  1  0
  3 17  1  1
  5  6  1  0
  5 10  1  0
  5 53  1  1
  6  7  1  0
  6 40  1  1
  6 41  1  0
  7  8  1  0
  7 35  1  0
  7 42  1  6
  8  9  1  0
  8 43  1  1
  8 44  1  0
  9 45  1  6
  9 46  1  0
 10 11  1  0
 10 18  1  0
 11 12  1  0
 11 13  2  0
 12 14  2  0
 12 15  1  0
 14 19  1  0
 15 20  1  0
 19 20  2  0
 19 24  1  0
 20 21  1  0
 21 22  1  0
 21 26  1  6
 21 27  1  0
 22 23  1  0
 22 25  1  0
 23 24  1  0
 23 28  1  6
 23 29  1  0
 24 30  1  1
 24 31  1  0
 25 32  1  6
 25 33  1  0
 25 34  1  0
 35 36  2  0
 35 37  1  0
 37 38  1  0
 37 39  1  0
 38 47  1  6
 38 48  1  0
 38 49  1  0
 39 50  1  6
 39 51  1  0
 39 52  1  0
 54 55  1  0
 54 56  2  0
 55 57  1  0
 56 58  1  0
 56 67  1  0
 57 58  2  0
 57 62  1  0
 58 59  1  0
 59 60  2  0
 59 63  1  0
 60 61  1  0
 60 64  1  0
 61 62  2  0
 61 65  1  0
 62 66  1  0
M  END
