19a_charg
     RDKit          3D

 37 37  0  0  1  0  0  0  0  0999 V2000
   24.0713   12.3690   30.2524 C   0  0  1  0  0  0  0  0  0  0  0  0
   23.3106   11.0599   30.4602 C   0  0  1  0  0  0  0  0  0  0  0  0
   22.1968   11.3345   31.2848 O   0  0  0  0  0  0  0  0  0  0  0  0
   21.3996   10.2822   31.7013 C   0  0  0  0  0  0  0  0  0  0  0  0
   21.7456    9.0392   31.2731 N   0  0  0  0  0  0  0  0  0  0  0  0
   20.9690    8.0102   31.6444 C   0  0  0  0  0  0  0  0  0  0  0  0
   19.8629    8.1543   32.4698 C   0  0  0  0  0  0  0  0  0  0  0  0
   19.5195    9.4255   32.8937 C   0  0  0  0  0  0  0  0  0  0  0  0
   18.3840    9.5058   33.6916 N   0  0  0  0  0  0  0  0  0  0  0  0
   20.2911   10.5310   32.5019 C   0  0  0  0  0  0  0  0  0  0  0  0
   19.9686   11.9007   32.8839 C   0  0  0  0  0  0  0  0  0  0  0  0
   19.7198   12.9913   33.1811 N   0  0  0  0  0  0  0  0  0  0  0  0
   21.4280    6.8298   31.0994 N   0  0  0  0  0  0  0  0  0  0  0  0
   20.8471    5.6238   31.0233 C   0  0  0  0  0  0  0  0  0  0  0  0
   19.7218    5.3642   31.4396 O   0  0  0  0  0  0  0  0  0  0  0  0
   21.6453    4.5492   30.2959 C   0  0  1  0  0  0  0  0  0  0  0  0
   23.3741   13.1661   29.9817 H   0  0  0  0  0  0  0  0  0  0  0  0
   24.5885   12.6678   31.1683 H   0  0  0  0  0  0  0  0  0  0  0  0
   22.9550   10.6521   29.5109 H   0  0  0  0  0  0  0  0  0  0  0  0
   23.9592   10.3144   30.9281 H   0  0  0  0  0  0  0  0  0  0  0  0
   19.2676    7.3076   32.7671 H   0  0  0  0  0  0  0  0  0  0  0  0
   17.9996   10.4112   33.9501 H   0  0  0  0  0  0  0  0  0  0  0  0
   17.9030    8.6580   33.9745 H   0  0  0  0  0  0  0  0  0  0  0  0
   22.3340    6.9318   30.6726 H   0  0  0  0  0  0  0  0  0  0  0  0
   21.0986    3.6093   30.2959 H   0  0  0  0  0  0  0  0  0  0  0  0
   21.7112    4.8755   29.2640 H   0  0  0  0  0  0  0  0  0  0  0  0
   22.6359    4.4281   30.7342 H   0  0  0  0  0  0  0  0  0  0  0  0
   25.0758   12.2596   29.0675 N   0  0  1  0  0  0  0  0  0  0  0  0
   25.9566   13.5355   28.9497 C   0  0  1  0  0  0  0  0  0  0  0  0
   25.8678   10.9195   28.9655 C   0  0  2  0  0  0  0  0  0  0  0  0
   26.4959   10.9584   28.0716 H   0  0  0  0  0  0  0  0  0  0  0  0
   25.1484   10.1050   28.8303 H   0  0  0  0  0  0  0  0  0  0  0  0
   26.9623   13.2785   28.6059 H   0  0  0  0  0  0  0  0  0  0  0  0
   26.4670   10.7478   29.8607 H   0  0  0  0  0  0  0  0  0  0  0  0
   25.4650   14.1725   28.2119 H   0  0  0  0  0  0  0  0  0  0  0  0
   26.0123   14.0618   29.9079 H   0  0  0  0  0  0  0  0  0  0  0  0
   24.4857   12.2613   28.2386 H   0  0  0  0  0  0  0  0  0  0  0  0
  1  2  1  0
  1 17  1  6
  1 18  1  0
  1 28  1  0
  2  3  1  0
  2 19  1  6
  2 20  1  0
  3  4  1  0
  4 10  1  0
  4  5  2  0
  5  6  1  0
  6  7  2  0
  6 13  1  0
  7  8  1  0
  7 21  1  0
  8  9  1  0
  8 10  2  0
  9 22  1  0
  9 23  1  0
 10 11  1  0
 11 12  3  0
 13 14  1  0
 13 24  1  0
 14 15  2  0
 14 16  1  0
 16 25  1  6
 16 26  1  0
 16 27  1  0
 28 29  1  0
 28 30  1  0
 28 37  1  6
 29 33  1  6
 29 35  1  0
 29 36  1  0
 30 31  1  6
 30 32  1  0
 30 34  1  0
M  CHG  1  28   1
M  END
