19b_charg
     RDKit          3D

 30 30  0  0  1  0  0  0  0  0999 V2000
   24.0769   12.4086   30.2277 C   0  0  1  0  0  0  0  0  0  0  0  0
   23.3366   11.0773   30.4269 C   0  0  1  0  0  0  0  0  0  0  0  0
   22.2068   11.3324   31.2698 O   0  0  0  0  0  0  0  0  0  0  0  0
   21.4091   10.2865   31.6937 C   0  0  0  0  0  0  0  0  0  0  0  0
   21.7456    9.0393   31.2731 N   0  0  0  0  0  0  0  0  0  0  0  0
   20.9690    8.0102   31.6444 C   0  0  0  0  0  0  0  0  0  0  0  0
   19.8628    8.1544   32.4699 C   0  0  0  0  0  0  0  0  0  0  0  0
   19.5194    9.4255   32.8937 C   0  0  0  0  0  0  0  0  0  0  0  0
   18.3842    9.5058   33.6915 N   0  0  0  0  0  0  0  0  0  0  0  0
   20.2911   10.5310   32.5018 C   0  0  0  0  0  0  0  0  0  0  0  0
   19.9686   11.9007   32.8838 C   0  0  0  0  0  0  0  0  0  0  0  0
   19.7198   12.9913   33.1811 N   0  0  0  0  0  0  0  0  0  0  0  0
   21.4271    6.8290   31.0991 N   0  0  0  0  0  0  0  0  0  0  0  0
   20.8483    5.6249   31.0239 C   0  0  0  0  0  0  0  0  0  0  0  0
   19.7218    5.3642   31.4396 O   0  0  0  0  0  0  0  0  0  0  0  0
   21.6453    4.5492   30.2959 C   0  0  1  0  0  0  0  0  0  0  0  0
   23.4106   13.1496   29.7900 H   0  0  0  0  0  0  0  0  0  0  0  0
   24.4199   12.7967   31.1849 H   0  0  0  0  0  0  0  0  0  0  0  0
   22.9985   10.6729   29.4696 H   0  0  0  0  0  0  0  0  0  0  0  0
   24.0017   10.3399   30.8843 H   0  0  0  0  0  0  0  0  0  0  0  0
   19.2676    7.3077   32.7672 H   0  0  0  0  0  0  0  0  0  0  0  0
   17.9996   10.4112   33.9501 H   0  0  0  0  0  0  0  0  0  0  0  0
   17.9030    8.6579   33.9746 H   0  0  0  0  0  0  0  0  0  0  0  0
   22.3340    6.9317   30.6726 H   0  0  0  0  0  0  0  0  0  0  0  0
   21.0986    3.6093   30.2959 H   0  0  0  0  0  0  0  0  0  0  0  0
   21.7112    4.8755   29.2640 H   0  0  0  0  0  0  0  0  0  0  0  0
   22.6359    4.4281   30.7342 H   0  0  0  0  0  0  0  0  0  0  0  0
   25.2955   12.2919   29.3161 C   0  0  0  0  0  0  0  0  0  0  0  0
   25.9311   13.3492   29.1281 O   0  0  0  0  0  0  0  0  0  0  0  0
   25.5805   11.1773   28.8258 O   0  0  0  0  0  0  0  0  0  0  0  0
  1  2  1  0
  1 17  1  6
  1 18  1  0
  1 28  1  0
  2  3  1  0
  2 19  1  6
  2 20  1  0
  3  4  1  0
  4 10  1  0
  4  5  2  0
  5  6  1  0
  6  7  2  0
  6 13  1  0
  7  8  1  0
  7 21  1  0
  8  9  1  0
  8 10  2  0
  9 22  1  0
  9 23  1  0
 10 11  1  0
 11 12  3  0
 13 14  1  0
 13 24  1  0
 14 15  2  0
 14 16  1  0
 16 25  1  6
 16 26  1  0
 16 27  1  0
 28 29  1  0
 28 30  2  0
M  CHG  1  29  -1
M  END
