22
     RDKit          3D

 32 34  0  0  1  0  0  0  0  0999 V2000
   -6.1528   12.6410  -11.9088 C   0  0  0  0  0  0  0  0  0  0  0  0
   -6.0817   12.4114  -10.5887 C   0  0  0  0  0  0  0  0  0  0  0  0
   -7.9756    9.3251  -10.9134 C   0  0  0  0  0  0  0  0  0  0  0  0
   -6.7089   11.2368  -10.1462 C   0  0  0  0  0  0  0  0  0  0  0  0
   -6.8155   10.6731   -8.8396 C   0  0  0  0  0  0  0  0  0  0  0  0
   -7.4863    9.4801   -8.6710 C   0  0  0  0  0  0  0  0  0  0  0  0
   -7.3075   10.5284  -11.1981 C   0  0  0  0  0  0  0  0  0  0  0  0
   -4.7302   14.6175  -11.9895 N   0  0  0  0  0  0  0  0  0  0  0  0
   -5.5682   13.7780  -12.6231 C   0  0  0  0  0  0  0  0  0  0  0  0
   -4.1549   15.7326  -12.7427 C   0  0  1  0  0  0  0  0  0  0  0  0
   -5.8085   13.9332  -13.8064 O   0  0  0  0  0  0  0  0  0  0  0  0
   -8.0338    8.8326   -9.6900 N   0  0  0  0  0  0  0  0  0  0  0  0
   -7.0595   11.3907  -12.7239 S   0  0  0  0  0  0  0  0  0  0  0  0
   -6.3055   11.2854   -7.7404 O   0  0  0  0  0  0  0  0  0  0  0  0
   -4.9940   11.5171   -7.4628 C   0  0  0  0  0  0  0  0  0  0  0  0
   -4.7046   12.3853   -6.4198 C   0  0  0  0  0  0  0  0  0  0  0  0
   -3.3978   12.6669   -6.0790 C   0  0  0  0  0  0  0  0  0  0  0  0
   -2.3503   12.0833   -6.7665 C   0  0  0  0  0  0  0  0  0  0  0  0
   -2.6416   11.2071   -7.8066 C   0  0  0  0  0  0  0  0  0  0  0  0
   -3.9535   10.9195   -8.1573 C   0  0  0  0  0  0  0  0  0  0  0  0
   -0.3662   12.5391   -6.1975 I   0  0  0  0  0  0  0  0  0  0  0  0
   -5.5664   13.1099   -9.9461 H   0  0  0  0  0  0  0  0  0  0  0  0
   -8.4602    8.7758  -11.7070 H   0  0  0  0  0  0  0  0  0  0  0  0
   -7.5776    9.0464   -7.6860 H   0  0  0  0  0  0  0  0  0  0  0  0
   -4.5104   14.4713  -11.0146 H   0  0  0  0  0  0  0  0  0  0  0  0
   -3.5028   16.3140  -12.0909 H   0  0  0  0  0  0  0  0  0  0  0  0
   -3.5771   15.3452  -13.5819 H   0  0  0  0  0  0  0  0  0  0  0  0
   -4.9556   16.3704  -13.1172 H   0  0  0  0  0  0  0  0  0  0  0  0
   -5.5067   12.8489   -5.8647 H   0  0  0  0  0  0  0  0  0  0  0  0
   -3.1859   13.3487   -5.2687 H   0  0  0  0  0  0  0  0  0  0  0  0
   -1.8402   10.7370   -8.3572 H   0  0  0  0  0  0  0  0  0  0  0  0
   -4.1663   10.2352   -8.9653 H   0  0  0  0  0  0  0  0  0  0  0  0
  1  2  2  0
  1  9  1  0
  1 13  1  0
  2  4  1  0
  2 22  1  0
  3  7  1  0
  3 12  2  0
  3 23  1  0
  4  5  1  0
  4  7  2  0
  5  6  2  0
  5 14  1  0
  6 12  1  0
  6 24  1  0
  7 13  1  0
  8  9  1  0
  8 10  1  0
  8 25  1  0
  9 11  2  0
 10 26  1  1
 10 27  1  0
 10 28  1  0
 14 15  1  0
 15 16  2  0
 15 20  1  0
 16 17  1  0
 16 29  1  0
 17 18  2  0
 17 30  1  0
 18 19  1  0
 18 21  1  0
 19 20  2  0
 19 31  1  0
 20 32  1  0
M  END
