20
     RDKit          3D

 33 35  0  0  1  0  0  0  0  0999 V2000
   -6.1528   12.6410  -11.9089 C   0  0  0  0  0  0  0  0  0  0  0  0
   -6.0817   12.4114  -10.5886 C   0  0  0  0  0  0  0  0  0  0  0  0
   -7.9756    9.3251  -10.9134 C   0  0  0  0  0  0  0  0  0  0  0  0
   -6.7089   11.2370  -10.1468 C   0  0  0  0  0  0  0  0  0  0  0  0
   -6.8155   10.6731   -8.8396 C   0  0  0  0  0  0  0  0  0  0  0  0
   -7.4863    9.4801   -8.6710 C   0  0  0  0  0  0  0  0  0  0  0  0
   -7.3074   10.5284  -11.1981 C   0  0  0  0  0  0  0  0  0  0  0  0
   -4.7953   14.8291  -11.8605 C   0  0  2  0  0  0  0  0  0  0  0  0
   -5.5436   13.7351  -12.6404 C   0  0  0  0  0  0  0  0  0  0  0  0
   -5.8084   13.9332  -13.8066 O   0  0  0  0  0  0  0  0  0  0  0  0
   -8.0338    8.8326   -9.6900 N   0  0  0  0  0  0  0  0  0  0  0  0
   -7.0595   11.3906  -12.7238 S   0  0  0  0  0  0  0  0  0  0  0  0
   -6.3001   11.2883   -7.7225 O   0  0  0  0  0  0  0  0  0  0  0  0
   -4.9942   11.5170   -7.4627 C   0  0  0  0  0  0  0  0  0  0  0  0
   -4.7049   12.3855   -6.4195 C   0  0  0  0  0  0  0  0  0  0  0  0
   -3.3978   12.6669   -6.0790 C   0  0  0  0  0  0  0  0  0  0  0  0
   -2.3503   12.0833   -6.7665 C   0  0  0  0  0  0  0  0  0  0  0  0
   -2.6414   11.2068   -7.8069 C   0  0  0  0  0  0  0  0  0  0  0  0
   -3.9533   10.9196   -8.1572 C   0  0  0  0  0  0  0  0  0  0  0  0
   -0.7264   12.4563   -6.3008 Cl  0  0  0  0  0  0  0  0  0  0  0  0
   -5.5664   13.1099   -9.9459 H   0  0  0  0  0  0  0  0  0  0  0  0
   -8.4602    8.7758  -11.7070 H   0  0  0  0  0  0  0  0  0  0  0  0
   -7.5776    9.0464   -7.6860 H   0  0  0  0  0  0  0  0  0  0  0  0
   -5.5067   12.8489   -5.8647 H   0  0  0  0  0  0  0  0  0  0  0  0
   -3.1859   13.3487   -5.2687 H   0  0  0  0  0  0  0  0  0  0  0  0
   -1.8402   10.7370   -8.3572 H   0  0  0  0  0  0  0  0  0  0  0  0
   -4.1663   10.2352   -8.9653 H   0  0  0  0  0  0  0  0  0  0  0  0
   -3.8097   15.6741  -12.6889 C   0  0  1  0  0  0  0  0  0  0  0  0
   -4.2608   14.5175  -10.9538 H   0  0  0  0  0  0  0  0  0  0  0  0
   -5.5983   15.5005  -11.5512 H   0  0  0  0  0  0  0  0  0  0  0  0
   -3.3357   16.4152  -12.0453 H   0  0  0  0  0  0  0  0  0  0  0  0
   -3.0464   15.0255  -13.1188 H   0  0  0  0  0  0  0  0  0  0  0  0
   -4.3485   16.1806  -13.4897 H   0  0  0  0  0  0  0  0  0  0  0  0
  1  2  2  0
  1  9  1  0
  1 12  1  0
  2  4  1  0
  2 21  1  0
  3  7  1  0
  3 11  2  0
  3 22  1  0
  4  5  1  0
  4  7  2  0
  5  6  2  0
  5 13  1  0
  6 11  1  0
  6 23  1  0
  7 12  1  0
  8  9  1  0
  8 28  1  0
  8 29  1  1
  8 30  1  0
  9 10  2  0
 13 14  1  0
 14 15  2  0
 14 19  1  0
 15 16  1  0
 15 24  1  0
 16 17  2  0
 16 25  1  0
 17 18  1  0
 17 20  1  0
 18 19  2  0
 18 26  1  0
 19 27  1  0
 28 31  1  1
 28 32  1  0
 28 33  1  0
M  END
