15
     RDKit          3D

 35 37  0  0  1  0  0  0  0  0999 V2000
   -6.1528   12.6410  -11.9088 C   0  0  0  0  0  0  0  0  0  0  0  0
   -6.0817   12.4114  -10.5887 C   0  0  0  0  0  0  0  0  0  0  0  0
   -7.9756    9.3251  -10.9134 C   0  0  0  0  0  0  0  0  0  0  0  0
   -6.7089   11.2368  -10.1462 C   0  0  0  0  0  0  0  0  0  0  0  0
   -6.8155   10.6731   -8.8396 C   0  0  0  0  0  0  0  0  0  0  0  0
   -7.4863    9.4801   -8.6710 C   0  0  0  0  0  0  0  0  0  0  0  0
   -7.3075   10.5284  -11.1981 C   0  0  0  0  0  0  0  0  0  0  0  0
   -4.7302   14.6175  -11.9895 N   0  0  0  0  0  0  0  0  0  0  0  0
   -5.5682   13.7780  -12.6231 C   0  0  0  0  0  0  0  0  0  0  0  0
   -5.8085   13.9332  -13.8064 O   0  0  0  0  0  0  0  0  0  0  0  0
   -8.0338    8.8326   -9.6900 N   0  0  0  0  0  0  0  0  0  0  0  0
   -7.0595   11.3907  -12.7239 S   0  0  0  0  0  0  0  0  0  0  0  0
   -6.3055   11.2854   -7.7404 O   0  0  0  0  0  0  0  0  0  0  0  0
   -4.9940   11.5171   -7.4628 C   0  0  0  0  0  0  0  0  0  0  0  0
   -4.7046   12.3853   -6.4198 C   0  0  0  0  0  0  0  0  0  0  0  0
   -3.3978   12.6669   -6.0790 C   0  0  0  0  0  0  0  0  0  0  0  0
   -2.3503   12.0833   -6.7665 C   0  0  0  0  0  0  0  0  0  0  0  0
   -2.6416   11.2071   -7.8066 C   0  0  0  0  0  0  0  0  0  0  0  0
   -3.9535   10.9195   -8.1573 C   0  0  0  0  0  0  0  0  0  0  0  0
   -0.7264   12.4563   -6.3008 Cl  0  0  0  0  0  0  0  0  0  0  0  0
   -5.5664   13.1099   -9.9461 H   0  0  0  0  0  0  0  0  0  0  0  0
   -8.4602    8.7758  -11.7070 H   0  0  0  0  0  0  0  0  0  0  0  0
   -7.5776    9.0464   -7.6860 H   0  0  0  0  0  0  0  0  0  0  0  0
   -4.3994   14.3974  -10.5223 C   0  0  1  0  0  0  0  0  0  0  0  0
   -5.5067   12.8489   -5.8647 H   0  0  0  0  0  0  0  0  0  0  0  0
   -3.1859   13.3487   -5.2687 H   0  0  0  0  0  0  0  0  0  0  0  0
   -1.8402   10.7370   -8.3572 H   0  0  0  0  0  0  0  0  0  0  0  0
   -4.1663   10.2352   -8.9653 H   0  0  0  0  0  0  0  0  0  0  0  0
   -4.1140   15.7866  -12.7404 C   0  0  1  0  0  0  0  0  0  0  0  0
   -3.7101   15.1713  -10.1847 H   0  0  0  0  0  0  0  0  0  0  0  0
   -5.3146   14.4440   -9.9320 H   0  0  0  0  0  0  0  0  0  0  0  0
   -3.9361   13.4188  -10.3967 H   0  0  0  0  0  0  0  0  0  0  0  0
   -3.4677   16.3508  -12.0681 H   0  0  0  0  0  0  0  0  0  0  0  0
   -3.5266   15.4116  -13.5785 H   0  0  0  0  0  0  0  0  0  0  0  0
   -4.9050   16.4368  -13.1139 H   0  0  0  0  0  0  0  0  0  0  0  0
  1  2  2  0
  1  9  1  0
  1 12  1  0
  2  4  1  0
  2 21  1  0
  3  7  1  0
  3 11  2  0
  3 22  1  0
  4  5  1  0
  4  7  2  0
  5  6  2  0
  5 13  1  0
  6 11  1  0
  6 23  1  0
  7 12  1  0
  8  9  1  0
  8 24  1  0
  8 29  1  0
  9 10  2  0
 13 14  1  0
 14 15  2  0
 14 19  1  0
 15 16  1  0
 15 25  1  0
 16 17  2  0
 16 26  1  0
 17 18  1  0
 17 20  1  0
 18 19  2  0
 18 27  1  0
 19 28  1  0
 24 30  1  1
 24 31  1  0
 24 32  1  0
 29 33  1  1
 29 34  1  0
 29 35  1  0
M  END
