18h
     RDKit          3D

 60 63  0  0  1  0  0  0  0  0999 V2000
   10.8011   -9.2877    0.2796 C   0  0  0  0  0  0  0  0  0  0  0  0
   11.9594   -9.0271   -0.4571 C   0  0  0  0  0  0  0  0  0  0  0  0
   10.8214   -9.1701    1.6720 C   0  0  0  0  0  0  0  0  0  0  0  0
   11.9975   -8.7929    2.3259 C   0  0  0  0  0  0  0  0  0  0  0  0
   13.1528   -8.5335    1.5842 C   0  0  0  0  0  0  0  0  0  0  0  0
   13.1326   -8.6508    0.1952 C   0  0  0  0  0  0  0  0  0  0  0  0
   14.3746   -8.3717   -0.5984 C   0  0  0  0  0  0  0  0  0  0  0  0
   14.3469   -8.0117   -1.8695 N   0  0  0  0  0  0  0  0  0  0  0  0
   15.6495   -7.8341   -2.2967 N   0  0  0  0  0  0  0  0  0  0  0  0
   15.6852   -8.4424   -0.1508 C   0  0  0  0  0  0  0  0  0  0  0  0
   16.4360   -8.0988   -1.2459 N   0  0  0  0  0  0  0  0  0  0  0  0
   17.8723   -7.9717   -1.4752 C   0  0  2  0  0  0  0  0  0  0  0  0
   18.6128   -9.2294   -0.9901 C   0  0  1  0  0  0  0  0  0  0  0  0
   18.2247  -10.3300   -1.7266 O   0  0  0  0  0  0  0  0  0  0  0  0
   18.4278   -6.7273   -0.7622 C   0  0  1  0  0  0  0  0  0  0  0  0
   18.0594   -6.7515    0.5675 O   0  0  0  0  0  0  0  0  0  0  0  0
   19.9644   -6.6641   -0.8562 C   0  0  1  0  0  0  0  0  0  0  0  0
   20.4848   -5.5093   -0.0527 C   0  0  1  0  0  0  0  0  0  0  0  0
   21.8221   -5.3181   -0.3349 O   0  0  0  0  0  0  0  0  0  0  0  0
   20.5330   -7.8771   -0.3539 O   0  0  0  0  0  0  0  0  0  0  0  0
   20.1408   -9.0499   -1.0735 C   0  0  1  0  0  0  0  0  0  0  0  0
   20.9643  -10.4642   -0.3736 S   0  0  0  0  0  0  0  0  0  0  0  0
   22.6578  -10.0777   -0.7625 C   0  0  0  0  0  0  0  0  0  0  0  0
   23.4416   -9.3885    0.1552 C   0  0  0  0  0  0  0  0  0  0  0  0
   24.7639   -9.0867   -0.1485 C   0  0  0  0  0  0  0  0  0  0  0  0
   25.3023   -9.4741   -1.3698 C   0  0  0  0  0  0  0  0  0  0  0  0
   24.5184  -10.1634   -2.2875 C   0  0  0  0  0  0  0  0  0  0  0  0
   23.1962  -10.4652   -1.9838 C   0  0  0  0  0  0  0  0  0  0  0  0
   16.1370   -8.6931    0.7999 H   0  0  0  0  0  0  0  0  0  0  0  0
   18.0004   -7.8640   -2.5546 H   0  0  0  0  0  0  0  0  0  0  0  0
   18.3359   -9.4423    0.0438 H   0  0  0  0  0  0  0  0  0  0  0  0
   18.4193  -10.2732   -2.7059 H   0  0  0  0  0  0  0  0  0  0  0  0
   17.9896   -5.8210   -1.1827 H   0  0  0  0  0  0  0  0  0  0  0  0
   17.4974   -5.9795    0.8644 H   0  0  0  0  0  0  0  0  0  0  0  0
   20.2855   -6.4938   -1.8862 H   0  0  0  0  0  0  0  0  0  0  0  0
   19.9271   -4.6083   -0.3081 H   0  0  0  0  0  0  0  0  0  0  0  0
   20.3645   -5.7222    1.0095 H   0  0  0  0  0  0  0  0  0  0  0  0
   22.2085   -5.9552   -1.0018 H   0  0  0  0  0  0  0  0  0  0  0  0
   20.4696   -8.9836   -2.1130 H   0  0  0  0  0  0  0  0  0  0  0  0
   23.0225   -9.0868    1.1060 H   0  0  0  0  0  0  0  0  0  0  0  0
   25.3742   -8.5500    0.5660 H   0  0  0  0  0  0  0  0  0  0  0  0
   24.9376  -10.4650   -3.2384 H   0  0  0  0  0  0  0  0  0  0  0  0
   22.5859  -11.0018   -2.6983 H   0  0  0  0  0  0  0  0  0  0  0  0
    9.6618   -9.6533   -0.3554 F   0  0  0  0  0  0  0  0  0  0  0  0
   11.9502   -9.1381   -1.8052 F   0  0  0  0  0  0  0  0  0  0  0  0
   12.0184   -8.6786    3.6755 F   0  0  0  0  0  0  0  0  0  0  0  0
   14.2963   -8.1677    2.2076 F   0  0  0  0  0  0  0  0  0  0  0  0
   26.7293   -9.1484   -1.6975 C   0  0  2  0  0  0  0  0  0  0  0  0
   26.9702   -9.5291   -2.6901 H   0  0  0  0  0  0  0  0  0  0  0  0
   27.3861   -9.6119   -0.9613 H   0  0  0  0  0  0  0  0  0  0  0  0
   26.8687   -8.0675   -1.6793 H   0  0  0  0  0  0  0  0  0  0  0  0
    9.5629   -9.4529    2.4761 N   0  0  0  0  0  0  0  0  0  0  0  0
    9.5840   -9.3253    3.9906 C   0  0  1  0  0  0  0  0  0  0  0  0
    8.2833   -9.8633    1.7658 C   0  0  1  0  0  0  0  0  0  0  0  0
    7.5771  -10.2658    2.4920 H   0  0  0  0  0  0  0  0  0  0  0  0
    7.8443   -8.9942    1.2759 H   0  0  0  0  0  0  0  0  0  0  0  0
    8.5104  -10.6247    1.0195 H   0  0  0  0  0  0  0  0  0  0  0  0
    8.5985   -9.5653    4.3898 H   0  0  0  0  0  0  0  0  0  0  0  0
   10.3205  -10.0147    4.4036 H   0  0  0  0  0  0  0  0  0  0  0  0
    9.8483   -8.3043    4.2661 H   0  0  0  0  0  0  0  0  0  0  0  0
  1  2  2  0
  1  3  1  0
  1 44  1  0
  2  6  1  0
  2 45  1  0
  3  4  2  0
  3 52  1  0
  4  5  1  0
  4 46  1  0
  5  6  2  0
  5 47  1  0
  6  7  1  0
  7  8  1  0
  7 10  2  0
  8  9  2  0
  9 11  1  0
 10 11  1  0
 10 29  1  0
 11 12  1  0
 12 13  1  0
 12 15  1  0
 12 30  1  6
 13 14  1  0
 13 21  1  0
 13 31  1  1
 14 32  1  0
 15 16  1  0
 15 17  1  0
 15 33  1  6
 16 34  1  0
 17 18  1  0
 17 20  1  0
 17 35  1  6
 18 19  1  0
 18 36  1  6
 18 37  1  0
 19 38  1  0
 20 21  1  0
 21 22  1  0
 21 39  1  6
 22 23  1  0
 23 24  2  0
 23 28  1  0
 24 25  1  0
 24 40  1  0
 25 26  2  0
 25 41  1  0
 26 27  1  0
 26 48  1  0
 27 28  2  0
 27 42  1  0
 28 43  1  0
 48 49  1  6
 48 50  1  0
 48 51  1  0
 52 53  1  0
 52 54  1  0
 53 58  1  1
 53 59  1  0
 53 60  1  0
 54 55  1  1
 54 56  1  0
 54 57  1  0
M  END
