17m
     RDKit          3D

 55 58  0  0  1  0  0  0  0  0999 V2000
   14.3747   -8.3717   -0.5984 C   0  0  0  0  0  0  0  0  0  0  0  0
   14.3469   -8.0117   -1.8695 N   0  0  0  0  0  0  0  0  0  0  0  0
   15.6495   -7.8341   -2.2967 N   0  0  0  0  0  0  0  0  0  0  0  0
   15.6852   -8.4424   -0.1508 C   0  0  0  0  0  0  0  0  0  0  0  0
   16.4360   -8.0988   -1.2460 N   0  0  0  0  0  0  0  0  0  0  0  0
   17.8723   -7.9717   -1.4752 C   0  0  2  0  0  0  0  0  0  0  0  0
   18.6128   -9.2294   -0.9901 C   0  0  1  0  0  0  0  0  0  0  0  0
   18.2247  -10.3300   -1.7266 O   0  0  0  0  0  0  0  0  0  0  0  0
   18.4278   -6.7273   -0.7622 C   0  0  1  0  0  0  0  0  0  0  0  0
   18.0585   -6.7515    0.5671 O   0  0  0  0  0  0  0  0  0  0  0  0
   19.9644   -6.6641   -0.8562 C   0  0  1  0  0  0  0  0  0  0  0  0
   20.4848   -5.5093   -0.0527 C   0  0  1  0  0  0  0  0  0  0  0  0
   21.8221   -5.3181   -0.3349 O   0  0  0  0  0  0  0  0  0  0  0  0
   20.5330   -7.8771   -0.3539 O   0  0  0  0  0  0  0  0  0  0  0  0
   20.1408   -9.0499   -1.0735 C   0  0  1  0  0  0  0  0  0  0  0  0
   20.9643  -10.4642   -0.3736 S   0  0  0  0  0  0  0  0  0  0  0  0
   22.6578  -10.0777   -0.7625 C   0  0  0  0  0  0  0  0  0  0  0  0
   23.4416   -9.3885    0.1552 C   0  0  0  0  0  0  0  0  0  0  0  0
   24.7639   -9.0867   -0.1485 C   0  0  0  0  0  0  0  0  0  0  0  0
   25.3023   -9.4741   -1.3698 C   0  0  0  0  0  0  0  0  0  0  0  0
   24.5184  -10.1634   -2.2875 C   0  0  0  0  0  0  0  0  0  0  0  0
   23.1962  -10.4652   -1.9838 C   0  0  0  0  0  0  0  0  0  0  0  0
   16.1370   -8.6931    0.7999 H   0  0  0  0  0  0  0  0  0  0  0  0
   18.0004   -7.8640   -2.5546 H   0  0  0  0  0  0  0  0  0  0  0  0
   18.3359   -9.4423    0.0438 H   0  0  0  0  0  0  0  0  0  0  0  0
   18.4193  -10.2732   -2.7059 H   0  0  0  0  0  0  0  0  0  0  0  0
   17.9896   -5.8210   -1.1827 H   0  0  0  0  0  0  0  0  0  0  0  0
   17.4975   -5.9795    0.8644 H   0  0  0  0  0  0  0  0  0  0  0  0
   20.2855   -6.4938   -1.8862 H   0  0  0  0  0  0  0  0  0  0  0  0
   19.9271   -4.6083   -0.3081 H   0  0  0  0  0  0  0  0  0  0  0  0
   20.3645   -5.7222    1.0095 H   0  0  0  0  0  0  0  0  0  0  0  0
   22.2085   -5.9552   -1.0018 H   0  0  0  0  0  0  0  0  0  0  0  0
   20.4696   -8.9836   -2.1130 H   0  0  0  0  0  0  0  0  0  0  0  0
   23.0225   -9.0868    1.1060 H   0  0  0  0  0  0  0  0  0  0  0  0
   25.3742   -8.5500    0.5660 H   0  0  0  0  0  0  0  0  0  0  0  0
   24.9376  -10.4650   -3.2384 H   0  0  0  0  0  0  0  0  0  0  0  0
   22.5859  -11.0018   -2.6983 H   0  0  0  0  0  0  0  0  0  0  0  0
   26.7293   -9.1484   -1.6975 C   0  0  2  0  0  0  0  0  0  0  0  0
   26.9702   -9.5291   -2.6901 H   0  0  0  0  0  0  0  0  0  0  0  0
   27.3861   -9.6119   -0.9613 H   0  0  0  0  0  0  0  0  0  0  0  0
   26.8687   -8.0675   -1.6793 H   0  0  0  0  0  0  0  0  0  0  0  0
   12.6058   -9.4223   -0.3810 H   0  0  0  0  0  0  0  0  0  0  0  0
   13.1787   -8.6363    0.1484 C   0  0  2  0  0  0  0  0  0  0  0  0
   12.3121   -7.3767    0.2807 C   0  0  2  0  0  0  0  0  0  0  0  0
   11.6305   -7.5411    1.6409 C   0  0  1  0  0  0  0  0  0  0  0  0
   12.7581   -8.1041    2.5090 C   0  0  1  0  0  0  0  0  0  0  0  0
   13.4800   -9.0959    1.5864 C   0  0  1  0  0  0  0  0  0  0  0  0
   11.5829   -7.2587   -0.5568 H   0  0  0  0  0  0  0  0  0  0  0  0
   12.9642   -6.4698    0.3023 H   0  0  0  0  0  0  0  0  0  0  0  0
   11.2133   -6.5839    2.0367 H   0  0  0  0  0  0  0  0  0  0  0  0
   10.8013   -8.2855    1.5636 H   0  0  0  0  0  0  0  0  0  0  0  0
   13.4530   -7.2759    2.7908 H   0  0  0  0  0  0  0  0  0  0  0  0
   12.3841   -8.5756    3.4497 H   0  0  0  0  0  0  0  0  0  0  0  0
   13.0785  -10.1256    1.7494 H   0  0  0  0  0  0  0  0  0  0  0  0
   14.5758   -9.1260    1.7996 H   0  0  0  0  0  0  0  0  0  0  0  0
  1  2  1  0
  1  4  2  0
  1 43  1  0
  2  3  2  0
  3  5  1  0
  4  5  1  0
  4 23  1  0
  5  6  1  0
  6  7  1  0
  6  9  1  0
  6 24  1  6
  7  8  1  0
  7 15  1  0
  7 25  1  1
  8 26  1  0
  9 10  1  0
  9 11  1  0
  9 27  1  6
 10 28  1  0
 11 12  1  0
 11 14  1  0
 11 29  1  6
 12 13  1  0
 12 30  1  6
 12 31  1  0
 13 32  1  0
 14 15  1  0
 15 16  1  0
 15 33  1  6
 16 17  1  0
 17 18  2  0
 17 22  1  0
 18 19  1  0
 18 34  1  0
 19 20  2  0
 19 35  1  0
 20 21  1  0
 20 38  1  0
 21 22  2  0
 21 36  1  0
 22 37  1  0
 38 39  1  6
 38 40  1  0
 38 41  1  0
 43 42  1  6
 43 44  1  0
 43 47  1  0
 44 45  1  0
 44 48  1  6
 44 49  1  0
 45 46  1  0
 45 50  1  1
 45 51  1  0
 46 47  1  0
 46 52  1  1
 46 53  1  0
 47 54  1  6
 47 55  1  0
M  END
