22
     RDKit          3D

 41 43  0  0  1  0  0  0  0  0999 V2000
   -5.0438   34.5637   -2.5960 C   0  0  0  0  0  0  0  0  0  0  0  0
   -4.5383   34.7144   -3.8452 C   0  0  0  0  0  0  0  0  0  0  0  0
   -3.7240   33.7409   -4.4912 C   0  0  0  0  0  0  0  0  0  0  0  0
   -5.8104   35.5779   -2.0173 N   0  0  0  0  0  0  0  0  0  0  0  0
   -5.8358   36.8674   -2.4998 C   0  0  0  0  0  0  0  0  0  0  0  0
   -5.0815   37.0440   -3.6097 N   0  0  0  0  0  0  0  0  0  0  0  0
   -4.8721   35.9890   -4.6301 C   0  0  2  0  0  0  0  0  0  0  0  0
   -6.5432   35.3419   -0.8325 C   0  0  0  0  0  0  0  0  0  0  0  0
   -6.0652   35.7996    0.4011 C   0  0  0  0  0  0  0  0  0  0  0  0
   -6.8232   35.6261    1.5552 C   0  0  0  0  0  0  0  0  0  0  0  0
   -8.0786   35.0272    1.4778 C   0  0  0  0  0  0  0  0  0  0  0  0
   -8.5722   34.5731    0.2496 C   0  0  0  0  0  0  0  0  0  0  0  0
   -7.7771   34.6909   -0.8961 C   0  0  0  0  0  0  0  0  0  0  0  0
   -9.9670   33.9725    0.1543 C   0  0  1  0  0  0  0  0  0  0  0  0
   -6.4576   37.8200   -2.0190 O   0  0  0  0  0  0  0  0  0  0  0  0
   -6.0354   35.8389   -5.6269 C   0  0  0  0  0  0  0  0  0  0  0  0
   -6.0350   36.5881   -6.8073 C   0  0  0  0  0  0  0  0  0  0  0  0
   -7.0899   36.4859   -7.7106 C   0  0  0  0  0  0  0  0  0  0  0  0
   -8.1816   35.6808   -7.4205 C   0  0  0  0  0  0  0  0  0  0  0  0
   -8.1636   34.8738   -6.2843 C   0  0  0  0  0  0  0  0  0  0  0  0
   -7.0934   34.9525   -5.3959 C   0  0  0  0  0  0  0  0  0  0  0  0
   -9.3586   35.7507   -8.2624 C   0  0  0  0  0  0  0  0  0  0  0  0
   -4.8073   33.3184   -1.7374 C   0  0  2  0  0  0  0  0  0  0  0  0
  -10.2522   33.2444    1.2347 F   0  0  0  0  0  0  0  0  0  0  0  0
  -10.8615   34.9546    0.0391 F   0  0  0  0  0  0  0  0  0  0  0  0
  -10.0630   33.1961   -0.9203 F   0  0  0  0  0  0  0  0  0  0  0  0
  -10.3005   35.8237   -8.9300 N   0  0  0  0  0  0  0  0  0  0  0  0
   -3.0539   33.0070   -5.0793 N   0  0  0  0  0  0  0  0  0  0  0  0
   -4.5258   37.8859   -3.6307 H   0  0  0  0  0  0  0  0  0  0  0  0
   -3.9977   36.3073   -5.2012 H   0  0  0  0  0  0  0  0  0  0  0  0
   -5.1134   36.3081    0.4636 H   0  0  0  0  0  0  0  0  0  0  0  0
   -6.4507   35.9796    2.5052 H   0  0  0  0  0  0  0  0  0  0  0  0
   -8.6717   34.9197    2.3758 H   0  0  0  0  0  0  0  0  0  0  0  0
   -8.1335   34.3254   -1.8506 H   0  0  0  0  0  0  0  0  0  0  0  0
   -5.2311   37.2732   -7.0282 H   0  0  0  0  0  0  0  0  0  0  0  0
   -7.0815   37.0689   -8.6203 H   0  0  0  0  0  0  0  0  0  0  0  0
   -8.9921   34.2179   -6.0482 H   0  0  0  0  0  0  0  0  0  0  0  0
   -7.1158   34.3336   -4.5095 H   0  0  0  0  0  0  0  0  0  0  0  0
   -4.2305   32.5394   -2.2333 H   0  0  0  0  0  0  0  0  0  0  0  0
   -5.7586   32.8735   -1.4530 H   0  0  0  0  0  0  0  0  0  0  0  0
   -4.2960   33.5929   -0.8149 H   0  0  0  0  0  0  0  0  0  0  0  0
  1  2  2  0
  1  4  1  0
  1 23  1  0
  2  3  1  0
  2  7  1  0
  3 28  3  0
  4  5  1  0
  4  8  1  0
  5  6  1  0
  5 15  2  0
  6  7  1  0
  6 29  1  0
  7 16  1  0
  7 30  1  6
  8 13  1  0
  8  9  2  0
  9 10  1  0
  9 31  1  0
 10 11  2  0
 10 32  1  0
 11 12  1  0
 11 33  1  0
 12 13  2  0
 12 14  1  0
 13 34  1  0
 14 24  1  1
 14 25  1  0
 14 26  1  0
 16 21  1  0
 16 17  2  0
 17 18  1  0
 17 35  1  0
 18 19  2  0
 18 36  1  0
 19 20  1  0
 19 22  1  0
 20 21  2  0
 20 37  1  0
 21 38  1  0
 22 27  3  0
 23 39  1  6
 23 40  1  0
 23 41  1  0
M  END
