29
     RDKit          3D

 50 52  0  0  1  0  0  0  0  0999 V2000
   -5.0356   34.4972   -2.0286 C   0  0  0  0  0  0  0  0  0  0  0  0
   -4.3968   34.6614   -3.1987 C   0  0  0  0  0  0  0  0  0  0  0  0
   -3.6151   33.6211   -3.8090 C   0  0  0  0  0  0  0  0  0  0  0  0
   -5.7689   35.5440   -1.4866 N   0  0  0  0  0  0  0  0  0  0  0  0
   -5.8084   36.8296   -1.9739 C   0  0  0  0  0  0  0  0  0  0  0  0
   -4.8678   37.0482   -2.9522 N   0  0  0  0  0  0  0  0  0  0  0  0
   -4.5716   35.9701   -3.9493 C   0  0  2  0  0  0  0  0  0  0  0  0
   -6.5801   35.3163   -0.3696 C   0  0  0  0  0  0  0  0  0  0  0  0
   -6.1867   35.7715    0.8973 C   0  0  0  0  0  0  0  0  0  0  0  0
   -7.0431   35.6412    1.9668 C   0  0  0  0  0  0  0  0  0  0  0  0
   -8.2980   35.0336    1.7971 C   0  0  0  0  0  0  0  0  0  0  0  0
   -8.7002   34.5977    0.5261 C   0  0  0  0  0  0  0  0  0  0  0  0
   -7.8359   34.7355   -0.5566 C   0  0  0  0  0  0  0  0  0  0  0  0
  -10.0872   34.0071    0.2901 C   0  0  1  0  0  0  0  0  0  0  0  0
   -6.6144   37.6770   -1.5671 O   0  0  0  0  0  0  0  0  0  0  0  0
   -5.5853   35.9172   -5.1103 C   0  0  0  0  0  0  0  0  0  0  0  0
   -5.4198   36.6707   -6.3037 C   0  0  0  0  0  0  0  0  0  0  0  0
   -6.5090   36.7081   -7.2001 C   0  0  0  0  0  0  0  0  0  0  0  0
   -7.6133   35.8614   -7.0539 C   0  0  0  0  0  0  0  0  0  0  0  0
   -7.7015   35.0375   -5.9122 C   0  0  0  0  0  0  0  0  0  0  0  0
   -6.7071   35.0960   -4.9417 C   0  0  0  0  0  0  0  0  0  0  0  0
   -8.7115   35.8513   -8.0108 C   0  0  0  0  0  0  0  0  0  0  0  0
   -5.0413   33.1614   -1.3109 C   0  0  2  0  0  0  0  0  0  0  0  0
  -10.9438   34.9969    0.0430 F   0  0  0  0  0  0  0  0  0  0  0  0
  -10.0669   33.2048   -0.7694 F   0  0  0  0  0  0  0  0  0  0  0  0
  -10.4755   33.3137    1.3514 F   0  0  0  0  0  0  0  0  0  0  0  0
   -9.5719   35.8696   -8.7733 N   0  0  0  0  0  0  0  0  0  0  0  0
   -2.9676   32.8094   -4.3043 N   0  0  0  0  0  0  0  0  0  0  0  0
   -3.8455   37.4628   -6.7532 S   0  0  1  0  0  0  0  0  0  0  0  0
   -4.5962   38.4469   -3.2824 C   0  0  2  0  0  0  0  0  0  0  0  0
   -4.2190   39.1555   -7.5005 C   0  0  2  0  0  0  0  0  0  0  0  0
   -3.0596   37.7683   -5.5457 O   0  0  0  0  0  0  0  0  0  0  0  0
   -3.2319   36.5833   -7.7377 O   0  0  0  0  0  0  0  0  0  0  0  0
   -3.5746   36.1059   -4.3796 H   0  0  0  0  0  0  0  0  0  0  0  0
   -5.2334   36.2803    1.0193 H   0  0  0  0  0  0  0  0  0  0  0  0
   -6.7188   36.0481    2.9138 H   0  0  0  0  0  0  0  0  0  0  0  0
   -8.9457   34.9470    2.6420 H   0  0  0  0  0  0  0  0  0  0  0  0
   -8.1419   34.4306   -1.5505 H   0  0  0  0  0  0  0  0  0  0  0  0
   -6.4728   37.3593   -8.0883 H   0  0  0  0  0  0  0  0  0  0  0  0
   -8.5042   34.3466   -5.7319 H   0  0  0  0  0  0  0  0  0  0  0  0
   -6.8415   34.4871   -4.0574 H   0  0  0  0  0  0  0  0  0  0  0  0
   -4.5818   32.3530   -1.8718 H   0  0  0  0  0  0  0  0  0  0  0  0
   -6.0703   32.8627   -1.0849 H   0  0  0  0  0  0  0  0  0  0  0  0
   -4.4959   33.2726   -0.3590 H   0  0  0  0  0  0  0  0  0  0  0  0
   -3.5222   38.5966   -3.3803 H   0  0  0  0  0  0  0  0  0  0  0  0
   -4.9415   39.1513   -2.5252 H   0  0  0  0  0  0  0  0  0  0  0  0
   -5.0753   38.7190   -4.2252 H   0  0  0  0  0  0  0  0  0  0  0  0
   -3.3033   39.5166   -7.9575 H   0  0  0  0  0  0  0  0  0  0  0  0
   -4.4949   39.8329   -6.6939 H   0  0  0  0  0  0  0  0  0  0  0  0
   -5.0080   39.1104   -8.2191 H   0  0  0  0  0  0  0  0  0  0  0  0
  1  2  2  0
  1  4  1  0
  1 23  1  0
  2  3  1  0
  2  7  1  0
  3 28  3  0
  4  5  1  0
  4  8  1  0
  5  6  1  0
  5 15  2  0
  6  7  1  0
  6 30  1  0
  7 16  1  0
  7 34  1  6
  8 13  1  0
  8  9  2  0
  9 10  1  0
  9 35  1  0
 10 11  2  0
 10 36  1  0
 11 12  1  0
 11 37  1  0
 12 13  2  0
 12 14  1  0
 13 38  1  0
 14 24  1  6
 14 25  1  0
 14 26  1  0
 16 21  1  0
 16 17  2  0
 17 18  1  0
 29 17  1  1
 18 19  2  0
 18 39  1  0
 19 20  1  0
 19 22  1  0
 20 21  2  0
 20 40  1  0
 21 41  1  0
 22 27  3  0
 23 42  1  6
 23 43  1  0
 23 44  1  0
 29 31  1  0
 29 32  2  0
 29 33  2  0
 30 45  1  6
 30 46  1  0
 30 47  1  0
 31 48  1  6
 31 49  1  0
 31 50  1  0
M  END
