18
     RDKit          3D

 45 47  0  0  1  0  0  0  0  0999 V2000
   -5.0424   34.5607   -2.5978 C   0  0  0  0  0  0  0  0  0  0  0  0
   -4.5015   34.7333   -3.8435 C   0  0  0  0  0  0  0  0  0  0  0  0
   -3.6711   33.7344   -4.5790 C   0  0  0  0  0  0  0  0  0  0  0  0
   -5.8228   35.5783   -2.0238 N   0  0  0  0  0  0  0  0  0  0  0  0
   -5.8653   36.8703   -2.5046 C   0  0  0  0  0  0  0  0  0  0  0  0
   -5.1080   37.0518   -3.6090 N   0  0  0  0  0  0  0  0  0  0  0  0
   -4.8748   36.0123   -4.6278 C   0  0  2  0  0  0  0  0  0  0  0  0
   -6.5491   35.3466   -0.8337 C   0  0  0  0  0  0  0  0  0  0  0  0
   -6.0711   35.8091    0.4003 C   0  0  0  0  0  0  0  0  0  0  0  0
   -6.8338   35.6349    1.5532 C   0  0  0  0  0  0  0  0  0  0  0  0
   -8.0850   35.0281    1.4744 C   0  0  0  0  0  0  0  0  0  0  0  0
   -8.5782   34.5767    0.2461 C   0  0  0  0  0  0  0  0  0  0  0  0
   -7.7837   34.6988   -0.8998 C   0  0  0  0  0  0  0  0  0  0  0  0
   -9.9730   33.9779    0.1566 C   0  0  1  0  0  0  0  0  0  0  0  0
   -6.4886   37.8261   -2.0338 O   0  0  0  0  0  0  0  0  0  0  0  0
   -6.0501   35.8577   -5.6183 C   0  0  0  0  0  0  0  0  0  0  0  0
   -6.0519   36.6033   -6.8074 C   0  0  0  0  0  0  0  0  0  0  0  0
   -7.1015   36.4753   -7.7166 C   0  0  0  0  0  0  0  0  0  0  0  0
   -8.1922   35.6550   -7.4176 C   0  0  0  0  0  0  0  0  0  0  0  0
   -8.1798   34.8715   -6.2729 C   0  0  0  0  0  0  0  0  0  0  0  0
   -7.1037   34.9606   -5.3846 C   0  0  0  0  0  0  0  0  0  0  0  0
   -9.3672   35.7288   -8.2773 C   0  0  0  0  0  0  0  0  0  0  0  0
   -4.8268   33.3242   -1.7087 C   0  0  2  0  0  0  0  0  0  0  0  0
  -10.2487   33.2416    1.2347 F   0  0  0  0  0  0  0  0  0  0  0  0
  -10.8677   34.9607    0.0513 F   0  0  0  0  0  0  0  0  0  0  0  0
  -10.0760   33.2094   -0.9216 F   0  0  0  0  0  0  0  0  0  0  0  0
  -10.2956   35.8226   -8.9642 N   0  0  0  0  0  0  0  0  0  0  0  0
   -4.5785   37.9069   -3.6577 H   0  0  0  0  0  0  0  0  0  0  0  0
   -3.5597   33.8020   -6.0950 C   0  0  2  0  0  0  0  0  0  0  0  0
   -3.0125   32.8454   -4.0484 O   0  0  0  0  0  0  0  0  0  0  0  0
   -4.0316   36.3383   -5.2409 H   0  0  0  0  0  0  0  0  0  0  0  0
   -5.1305   36.3359    0.4619 H   0  0  0  0  0  0  0  0  0  0  0  0
   -6.4688   36.0010    2.5012 H   0  0  0  0  0  0  0  0  0  0  0  0
   -8.6824   34.9228    2.3700 H   0  0  0  0  0  0  0  0  0  0  0  0
   -8.1416   34.3483   -1.8598 H   0  0  0  0  0  0  0  0  0  0  0  0
   -5.2559   37.3060   -7.0326 H   0  0  0  0  0  0  0  0  0  0  0  0
   -7.0966   37.0428   -8.6439 H   0  0  0  0  0  0  0  0  0  0  0  0
   -9.0139   34.2143   -6.0346 H   0  0  0  0  0  0  0  0  0  0  0  0
   -7.1227   34.3397   -4.4954 H   0  0  0  0  0  0  0  0  0  0  0  0
   -4.3197   32.4865   -2.1629 H   0  0  0  0  0  0  0  0  0  0  0  0
   -5.7719   32.8861   -1.4073 H   0  0  0  0  0  0  0  0  0  0  0  0
   -4.2409   33.5909   -0.8306 H   0  0  0  0  0  0  0  0  0  0  0  0
   -3.0940   34.7400   -6.3883 H   0  0  0  0  0  0  0  0  0  0  0  0
   -4.5377   33.7061   -6.5623 H   0  0  0  0  0  0  0  0  0  0  0  0
   -2.9244   32.9876   -6.4458 H   0  0  0  0  0  0  0  0  0  0  0  0
  1  2  2  0
  1  4  1  0
  1 23  1  0
  2  3  1  0
  2  7  1  0
  3 29  1  0
  3 30  2  0
  4  5  1  0
  4  8  1  0
  5  6  1  0
  5 15  2  0
  6  7  1  0
  6 28  1  0
  7 16  1  0
  7 31  1  6
  8 13  1  0
  8  9  2  0
  9 10  1  0
  9 32  1  0
 10 11  2  0
 10 33  1  0
 11 12  1  0
 11 34  1  0
 12 13  2  0
 12 14  1  0
 13 35  1  0
 14 24  1  1
 14 25  1  0
 14 26  1  0
 16 21  1  0
 16 17  2  0
 17 18  1  0
 17 36  1  0
 18 19  2  0
 18 37  1  0
 19 20  1  0
 19 22  1  0
 20 21  2  0
 20 38  1  0
 21 39  1  0
 22 27  3  0
 23 40  1  6
 23 41  1  0
 23 42  1  0
 29 43  1  1
 29 44  1  0
 29 45  1  0
M  END
