23
     RDKit          3D

 48 50  0  0  1  0  0  0  0  0999 V2000
   -5.0420   34.5483   -2.5839 C   0  0  0  0  0  0  0  0  0  0  0  0
   -4.5524   34.7008   -3.8373 C   0  0  0  0  0  0  0  0  0  0  0  0
   -3.7498   33.7185   -4.4834 C   0  0  0  0  0  0  0  0  0  0  0  0
   -5.8011   35.5523   -2.0020 N   0  0  0  0  0  0  0  0  0  0  0  0
   -5.9121   36.8180   -2.5307 C   0  0  0  0  0  0  0  0  0  0  0  0
   -5.0962   37.0539   -3.6214 N   0  0  0  0  0  0  0  0  0  0  0  0
   -4.8911   35.9711   -4.6209 C   0  0  2  0  0  0  0  0  0  0  0  0
   -6.5244   35.3144   -0.8127 C   0  0  0  0  0  0  0  0  0  0  0  0
   -6.0545   35.7825    0.4205 C   0  0  0  0  0  0  0  0  0  0  0  0
   -6.8172   35.6122    1.5707 C   0  0  0  0  0  0  0  0  0  0  0  0
   -8.0744   35.0166    1.4842 C   0  0  0  0  0  0  0  0  0  0  0  0
   -8.5634   34.5626    0.2547 C   0  0  0  0  0  0  0  0  0  0  0  0
   -7.7638   34.6781   -0.8871 C   0  0  0  0  0  0  0  0  0  0  0  0
   -9.9587   33.9612    0.1553 C   0  0  1  0  0  0  0  0  0  0  0  0
   -6.6025   37.7108   -2.0273 O   0  0  0  0  0  0  0  0  0  0  0  0
   -6.0262   35.8299   -5.6380 C   0  0  0  0  0  0  0  0  0  0  0  0
   -6.0057   36.5848   -6.8108 C   0  0  0  0  0  0  0  0  0  0  0  0
   -7.0769   36.5260   -7.7007 C   0  0  0  0  0  0  0  0  0  0  0  0
   -8.1698   35.7091   -7.4139 C   0  0  0  0  0  0  0  0  0  0  0  0
   -8.1492   34.8811   -6.3032 C   0  0  0  0  0  0  0  0  0  0  0  0
   -7.0854   34.9460   -5.4101 C   0  0  0  0  0  0  0  0  0  0  0  0
   -9.3633   35.7695   -8.2401 C   0  0  0  0  0  0  0  0  0  0  0  0
   -4.7773   33.2997   -1.7415 C   0  0  2  0  0  0  0  0  0  0  0  0
  -10.0621   33.1797   -0.9153 F   0  0  0  0  0  0  0  0  0  0  0  0
  -10.2454   33.2394    1.2380 F   0  0  0  0  0  0  0  0  0  0  0  0
  -10.8499   34.9451    0.0380 F   0  0  0  0  0  0  0  0  0  0  0  0
  -10.3162   35.8265   -8.8842 N   0  0  0  0  0  0  0  0  0  0  0  0
   -3.0726   32.9558   -5.0297 N   0  0  0  0  0  0  0  0  0  0  0  0
   -4.7409   38.4398   -4.0332 C   0  0  1  0  0  0  0  0  0  0  0  0
   -4.0193   39.2663   -2.9243 C   0  0  0  0  0  0  0  0  0  0  0  0
   -4.0532   38.8286   -1.6640 N   0  0  0  0  0  0  0  0  0  0  0  0
   -3.4347   40.3004   -3.2130 O   0  0  0  0  0  0  0  0  0  0  0  0
   -3.9881   36.2203   -5.1831 H   0  0  0  0  0  0  0  0  0  0  0  0
   -5.1008   36.2853    0.4941 H   0  0  0  0  0  0  0  0  0  0  0  0
   -6.4393   35.9581    2.5214 H   0  0  0  0  0  0  0  0  0  0  0  0
   -8.6674   34.9073    2.3809 H   0  0  0  0  0  0  0  0  0  0  0  0
   -8.1159   34.3213   -1.8458 H   0  0  0  0  0  0  0  0  0  0  0  0
   -5.1757   37.2420   -7.0308 H   0  0  0  0  0  0  0  0  0  0  0  0
   -7.0682   37.1376   -8.5903 H   0  0  0  0  0  0  0  0  0  0  0  0
   -8.9723   34.2113   -6.0848 H   0  0  0  0  0  0  0  0  0  0  0  0
   -7.1122   34.3182   -4.5317 H   0  0  0  0  0  0  0  0  0  0  0  0
   -4.0973   32.5999   -2.2236 H   0  0  0  0  0  0  0  0  0  0  0  0
   -5.7094   32.7671   -1.5616 H   0  0  0  0  0  0  0  0  0  0  0  0
   -4.3458   33.5745   -0.7793 H   0  0  0  0  0  0  0  0  0  0  0  0
   -4.0608   38.3915   -4.8880 H   0  0  0  0  0  0  0  0  0  0  0  0
   -5.6316   38.9544   -4.3999 H   0  0  0  0  0  0  0  0  0  0  0  0
   -3.6590   39.3274   -0.8812 H   0  0  0  0  0  0  0  0  0  0  0  0
   -4.6342   38.0216   -1.5042 H   0  0  0  0  0  0  0  0  0  0  0  0
  1  2  2  0
  1  4  1  0
  1 23  1  0
  2  3  1  0
  2  7  1  0
  3 28  3  0
  4  5  1  0
  4  8  1  0
  5  6  1  0
  5 15  2  0
  6  7  1  0
  6 29  1  0
  7 16  1  0
  7 33  1  6
  8 13  1  0
  8  9  2  0
  9 10  1  0
  9 34  1  0
 10 11  2  0
 10 35  1  0
 11 12  1  0
 11 36  1  0
 12 13  2  0
 12 14  1  0
 13 37  1  0
 14 24  1  6
 14 25  1  0
 14 26  1  0
 16 21  1  0
 16 17  2  0
 17 18  1  0
 17 38  1  0
 18 19  2  0
 18 39  1  0
 19 20  1  0
 19 22  1  0
 20 21  2  0
 20 40  1  0
 21 41  1  0
 22 27  3  0
 23 42  1  6
 23 43  1  0
 23 44  1  0
 29 30  1  0
 29 45  1  6
 29 46  1  0
 30 31  1  0
 30 32  2  0
 31 47  1  0
 31 48  1  0
M  END
