15
     RDKit          3D

 56 58  0  0  1  0  0  0  0  0999 V2000
   -4.9616   34.6218   -2.6534 C   0  0  0  0  0  0  0  0  0  0  0  0
   -4.4473   34.7970   -3.9039 C   0  0  0  0  0  0  0  0  0  0  0  0
   -3.5118   33.8673   -4.5918 C   0  0  0  0  0  0  0  0  0  0  0  0
   -5.7149   35.6410   -2.0694 N   0  0  0  0  0  0  0  0  0  0  0  0
   -5.7741   36.9310   -2.5577 C   0  0  0  0  0  0  0  0  0  0  0  0
   -5.0135   37.1597   -3.6870 N   0  0  0  0  0  0  0  0  0  0  0  0
   -4.8634   36.0633   -4.6859 C   0  0  2  0  0  0  0  0  0  0  0  0
   -6.4885   35.3784   -0.9112 C   0  0  0  0  0  0  0  0  0  0  0  0
   -6.0603   35.8288    0.3436 C   0  0  0  0  0  0  0  0  0  0  0  0
   -6.8457   35.6224    1.4738 C   0  0  0  0  0  0  0  0  0  0  0  0
   -8.0772   34.9864    1.3481 C   0  0  0  0  0  0  0  0  0  0  0  0
   -8.5258   34.5382    0.1019 C   0  0  0  0  0  0  0  0  0  0  0  0
   -7.7102   34.7123   -1.0234 C   0  0  0  0  0  0  0  0  0  0  0  0
   -9.8909   33.8779   -0.0167 C   0  0  1  0  0  0  0  0  0  0  0  0
   -6.4650   37.8255   -2.0493 O   0  0  0  0  0  0  0  0  0  0  0  0
   -6.0671   35.9091   -5.6279 C   0  0  0  0  0  0  0  0  0  0  0  0
   -7.0903   34.9921   -5.3817 C   0  0  0  0  0  0  0  0  0  0  0  0
   -8.1887   34.9184   -6.2358 C   0  0  0  0  0  0  0  0  0  0  0  0
   -8.2769   35.7664   -7.3360 C   0  0  0  0  0  0  0  0  0  0  0  0
   -7.2261   36.6278   -7.6303 C   0  0  0  0  0  0  0  0  0  0  0  0
   -6.1276   36.7007   -6.7773 C   0  0  0  0  0  0  0  0  0  0  0  0
   -9.4902   35.7976   -8.1343 C   0  0  0  0  0  0  0  0  0  0  0  0
   -4.7365   33.3848   -1.7599 C   0  0  2  0  0  0  0  0  0  0  0  0
  -10.0657   33.0275    0.9967 F   0  0  0  0  0  0  0  0  0  0  0  0
  -10.8375   34.8104    0.0380 F   0  0  0  0  0  0  0  0  0  0  0  0
  -10.0192   33.2081   -1.1615 F   0  0  0  0  0  0  0  0  0  0  0  0
  -10.4601   35.8283   -8.7627 N   0  0  0  0  0  0  0  0  0  0  0  0
   -4.8781   38.5408   -4.2146 C   0  0  1  0  0  0  0  0  0  0  0  0
   -3.5508   33.9730   -5.9510 O   0  0  0  0  0  0  0  0  0  0  0  0
   -2.7518   33.0913   -4.0122 O   0  0  0  0  0  0  0  0  0  0  0  0
   -2.6706   33.2261   -6.7927 C   0  0  1  0  0  0  0  0  0  0  0  0
   -3.0309   31.7322   -6.8954 C   0  0  2  0  0  0  0  0  0  0  0  0
   -3.9685   39.4303   -3.3461 C   0  0  0  0  0  0  0  0  0  0  0  0
   -4.4049   39.8019   -2.1419 N   0  0  0  0  0  0  0  0  0  0  0  0
   -2.8916   39.8273   -3.7815 O   0  0  0  0  0  0  0  0  0  0  0  0
   -4.0631   36.2981   -5.3905 H   0  0  0  0  0  0  0  0  0  0  0  0
   -5.1189   36.3473    0.4451 H   0  0  0  0  0  0  0  0  0  0  0  0
   -6.5033   35.9645    2.4369 H   0  0  0  0  0  0  0  0  0  0  0  0
   -8.6896   34.8538    2.2298 H   0  0  0  0  0  0  0  0  0  0  0  0
   -8.0463   34.3739   -1.9962 H   0  0  0  0  0  0  0  0  0  0  0  0
   -7.0690   34.3420   -4.5163 H   0  0  0  0  0  0  0  0  0  0  0  0
   -8.9898   34.2304   -5.9971 H   0  0  0  0  0  0  0  0  0  0  0  0
   -7.2710   37.2903   -8.4841 H   0  0  0  0  0  0  0  0  0  0  0  0
   -5.3355   37.4034   -7.0036 H   0  0  0  0  0  0  0  0  0  0  0  0
   -3.9900   32.6742   -2.1009 H   0  0  0  0  0  0  0  0  0  0  0  0
   -5.6648   32.8163   -1.6716 H   0  0  0  0  0  0  0  0  0  0  0  0
   -4.4257   33.6882   -0.7613 H   0  0  0  0  0  0  0  0  0  0  0  0
   -4.4670   38.5285   -5.2248 H   0  0  0  0  0  0  0  0  0  0  0  0
   -5.8634   39.0012   -4.3098 H   0  0  0  0  0  0  0  0  0  0  0  0
   -2.7196   33.6737   -7.7844 H   0  0  0  0  0  0  0  0  0  0  0  0
   -1.6398   33.3462   -6.4570 H   0  0  0  0  0  0  0  0  0  0  0  0
   -2.3907   31.2348   -7.6269 H   0  0  0  0  0  0  0  0  0  0  0  0
   -4.0633   31.5899   -7.2120 H   0  0  0  0  0  0  0  0  0  0  0  0
   -2.9014   31.2216   -5.9389 H   0  0  0  0  0  0  0  0  0  0  0  0
   -3.8348   40.3948   -1.5639 H   0  0  0  0  0  0  0  0  0  0  0  0
   -5.3034   39.4601   -1.8182 H   0  0  0  0  0  0  0  0  0  0  0  0
  1  2  2  0
  1  4  1  0
  1 23  1  0
  2  3  1  0
  2  7  1  0
  3 29  1  0
  3 30  2  0
  4  5  1  0
  4  8  1  0
  5  6  1  0
  5 15  2  0
  6  7  1  0
  6 28  1  0
  7 16  1  0
  7 36  1  6
  8 13  1  0
  8  9  2  0
  9 10  1  0
  9 37  1  0
 10 11  2  0
 10 38  1  0
 11 12  1  0
 11 39  1  0
 12 13  2  0
 12 14  1  0
 13 40  1  0
 14 24  1  1
 14 25  1  0
 14 26  1  0
 16 21  1  0
 16 17  2  0
 17 18  1  0
 17 41  1  0
 18 19  2  0
 18 42  1  0
 19 20  1  0
 19 22  1  0
 20 21  2  0
 20 43  1  0
 21 44  1  0
 22 27  3  0
 23 45  1  6
 23 46  1  0
 23 47  1  0
 28 33  1  0
 28 48  1  6
 28 49  1  0
 29 31  1  0
 31 32  1  0
 31 50  1  6
 31 51  1  0
 32 52  1  6
 32 53  1  0
 32 54  1  0
 33 34  1  0
 33 35  2  0
 34 55  1  0
 34 56  1  0
M  END
