27
     RDKit          3D

 47 49  0  0  1  0  0  0  0  0999 V2000
   -5.0441   34.5559   -2.5692 C   0  0  0  0  0  0  0  0  0  0  0  0
   -4.5573   34.7000   -3.8209 C   0  0  0  0  0  0  0  0  0  0  0  0
   -3.7566   33.7177   -4.4763 C   0  0  0  0  0  0  0  0  0  0  0  0
   -5.7765   35.5787   -1.9760 N   0  0  0  0  0  0  0  0  0  0  0  0
   -5.8278   36.8702   -2.4574 C   0  0  0  0  0  0  0  0  0  0  0  0
   -5.0728   37.0719   -3.5787 N   0  0  0  0  0  0  0  0  0  0  0  0
   -4.8799   35.9780   -4.5812 C   0  0  2  0  0  0  0  0  0  0  0  0
   -6.5243   35.3281   -0.8080 C   0  0  0  0  0  0  0  0  0  0  0  0
   -6.0555   35.7865    0.4263 C   0  0  0  0  0  0  0  0  0  0  0  0
   -6.8187   35.6110    1.5735 C   0  0  0  0  0  0  0  0  0  0  0  0
   -8.0741   35.0163    1.4838 C   0  0  0  0  0  0  0  0  0  0  0  0
   -8.5619   34.5626    0.2521 C   0  0  0  0  0  0  0  0  0  0  0  0
   -7.7604   34.6841   -0.8894 C   0  0  0  0  0  0  0  0  0  0  0  0
   -9.9577   33.9613    0.1538 C   0  0  1  0  0  0  0  0  0  0  0  0
   -6.4974   37.7805   -1.9568 O   0  0  0  0  0  0  0  0  0  0  0  0
   -6.0065   35.8435   -5.6160 C   0  0  0  0  0  0  0  0  0  0  0  0
   -5.9772   36.6010   -6.7861 C   0  0  0  0  0  0  0  0  0  0  0  0
   -7.0676   36.5315   -7.6852 C   0  0  0  0  0  0  0  0  0  0  0  0
   -8.1695   35.7088   -7.4136 C   0  0  0  0  0  0  0  0  0  0  0  0
   -8.1408   34.8837   -6.2993 C   0  0  0  0  0  0  0  0  0  0  0  0
   -7.0712   34.9581   -5.4099 C   0  0  0  0  0  0  0  0  0  0  0  0
   -9.3680   35.7695   -8.2402 C   0  0  0  0  0  0  0  0  0  0  0  0
   -4.7813   33.2999   -1.7380 C   0  0  2  0  0  0  0  0  0  0  0  0
  -10.0635   33.1796   -0.9156 F   0  0  0  0  0  0  0  0  0  0  0  0
  -10.2449   33.2395    1.2384 F   0  0  0  0  0  0  0  0  0  0  0  0
  -10.8493   34.9448    0.0403 F   0  0  0  0  0  0  0  0  0  0  0  0
  -10.3209   35.8111   -8.8859 N   0  0  0  0  0  0  0  0  0  0  0  0
   -3.0769   32.9583   -5.0276 N   0  0  0  0  0  0  0  0  0  0  0  0
   -4.7610   37.5056   -7.0950 C   0  0  1  0  0  0  0  0  0  0  0  0
   -3.7906   36.7222   -7.5956 F   0  0  0  0  0  0  0  0  0  0  0  0
   -5.1422   38.6589   -7.5627 F   0  0  0  0  0  0  0  0  0  0  0  0
   -3.9708   38.0394   -6.2215 F   0  0  0  0  0  0  0  0  0  0  0  0
   -4.7852   38.4646   -3.9374 C   0  0  2  0  0  0  0  0  0  0  0  0
   -3.9498   36.1904   -5.1078 H   0  0  0  0  0  0  0  0  0  0  0  0
   -5.1014   36.2879    0.4948 H   0  0  0  0  0  0  0  0  0  0  0  0
   -6.4396   35.9577    2.5227 H   0  0  0  0  0  0  0  0  0  0  0  0
   -8.6682   34.9069    2.3801 H   0  0  0  0  0  0  0  0  0  0  0  0
   -8.1130   34.3251   -1.8478 H   0  0  0  0  0  0  0  0  0  0  0  0
   -7.0877   37.1258   -8.5913 H   0  0  0  0  0  0  0  0  0  0  0  0
   -8.9653   34.2145   -6.0799 H   0  0  0  0  0  0  0  0  0  0  0  0
   -7.1069   34.3277   -4.5342 H   0  0  0  0  0  0  0  0  0  0  0  0
   -4.1410   32.5778   -2.2439 H   0  0  0  0  0  0  0  0  0  0  0  0
   -5.7183   32.7933   -1.5189 H   0  0  0  0  0  0  0  0  0  0  0  0
   -4.3028   33.5705   -0.7980 H   0  0  0  0  0  0  0  0  0  0  0  0
   -3.7131   38.5542   -4.1500 H   0  0  0  0  0  0  0  0  0  0  0  0
   -5.0510   39.2309   -3.2181 H   0  0  0  0  0  0  0  0  0  0  0  0
   -5.3698   38.7310   -4.8190 H   0  0  0  0  0  0  0  0  0  0  0  0
  1  2  2  0
  1  4  1  0
  1 23  1  0
  2  3  1  0
  2  7  1  0
  3 28  3  0
  4  5  1  0
  4  8  1  0
  5  6  1  0
  5 15  2  0
  6  7  1  0
  6 33  1  0
  7 16  1  0
  7 34  1  6
  8 13  1  0
  8  9  2  0
  9 10  1  0
  9 35  1  0
 10 11  2  0
 10 36  1  0
 11 12  1  0
 11 37  1  0
 12 13  2  0
 12 14  1  0
 13 38  1  0
 14 24  1  6
 14 25  1  0
 14 26  1  0
 16 21  1  0
 16 17  2  0
 17 18  1  0
 17 29  1  0
 18 19  2  0
 18 39  1  0
 19 20  1  0
 19 22  1  0
 20 21  2  0
 20 40  1  0
 21 41  1  0
 22 27  3  0
 23 42  1  6
 23 43  1  0
 23 44  1  0
 29 30  1  6
 29 31  1  0
 29 32  1  0
 33 45  1  6
 33 46  1  0
 33 47  1  0
M  END
