19 neutral
     RDKit          3D

 51 53  0  0  1  0  0  0  0  0999 V2000
   -5.0529   34.5439   -2.6004 C   0  0  0  0  0  0  0  0  0  0  0  0
   -4.5331   34.7009   -3.8495 C   0  0  0  0  0  0  0  0  0  0  0  0
   -3.6622   33.7336   -4.5768 C   0  0  0  0  0  0  0  0  0  0  0  0
   -5.7842   35.5828   -2.0157 N   0  0  0  0  0  0  0  0  0  0  0  0
   -5.8059   36.8762   -2.5138 C   0  0  0  0  0  0  0  0  0  0  0  0
   -5.0245   37.0701   -3.6421 N   0  0  0  0  0  0  0  0  0  0  0  0
   -4.9256   35.9611   -4.6292 C   0  0  2  0  0  0  0  0  0  0  0  0
   -6.5373   35.3472   -0.8358 C   0  0  0  0  0  0  0  0  0  0  0  0
   -6.0552   35.8050    0.4035 C   0  0  0  0  0  0  0  0  0  0  0  0
   -6.8241   35.6281    1.5586 C   0  0  0  0  0  0  0  0  0  0  0  0
   -8.0797   35.0247    1.4751 C   0  0  0  0  0  0  0  0  0  0  0  0
   -8.5678   34.5737    0.2472 C   0  0  0  0  0  0  0  0  0  0  0  0
   -7.7717   34.6977   -0.8997 C   0  0  0  0  0  0  0  0  0  0  0  0
   -9.9629   33.9696    0.1535 C   0  0  1  0  0  0  0  0  0  0  0  0
   -6.4868   37.7838   -2.0150 O   0  0  0  0  0  0  0  0  0  0  0  0
   -6.0857   35.8444   -5.6165 C   0  0  0  0  0  0  0  0  0  0  0  0
   -6.0573   36.5887   -6.7979 C   0  0  0  0  0  0  0  0  0  0  0  0
   -7.1029   36.4959   -7.7092 C   0  0  0  0  0  0  0  0  0  0  0  0
   -8.1900   35.6709   -7.4255 C   0  0  0  0  0  0  0  0  0  0  0  0
   -8.1865   34.8709   -6.2911 C   0  0  0  0  0  0  0  0  0  0  0  0
   -7.1309   34.9488   -5.3904 C   0  0  0  0  0  0  0  0  0  0  0  0
   -9.3712   35.7600   -8.2664 C   0  0  0  0  0  0  0  0  0  0  0  0
   -4.8229   33.3174   -1.6970 C   0  0  2  0  0  0  0  0  0  0  0  0
  -10.2521   33.2453    1.2340 F   0  0  0  0  0  0  0  0  0  0  0  0
  -10.8584   34.9515    0.0361 F   0  0  0  0  0  0  0  0  0  0  0  0
  -10.0690   33.1901   -0.9198 F   0  0  0  0  0  0  0  0  0  0  0  0
  -10.3092   35.8000   -8.9257 N   0  0  0  0  0  0  0  0  0  0  0  0
   -4.7410   38.4529   -4.0871 C   0  0  1  0  0  0  0  0  0  0  0  0
   -3.5646   33.8002   -6.1032 C   0  0  2  0  0  0  0  0  0  0  0  0
   -2.9855   32.8704   -4.0302 O   0  0  0  0  0  0  0  0  0  0  0  0
   -3.3333   38.6968   -4.6921 C   0  0  0  0  0  0  0  0  0  0  0  0
   -2.7031   37.7773   -5.2458 O   0  0  0  0  0  0  0  0  0  0  0  0
   -2.8967   39.8614   -4.5830 O   0  0  0  0  0  0  0  0  0  0  0  0
   -4.1338   36.1403   -5.3379 H   0  0  0  0  0  0  0  0  0  0  0  0
   -5.1143   36.3082    0.4650 H   0  0  0  0  0  0  0  0  0  0  0  0
   -6.4491   35.9804    2.5066 H   0  0  0  0  0  0  0  0  0  0  0  0
   -8.6718   34.9226    2.3729 H   0  0  0  0  0  0  0  0  0  0  0  0
   -8.1309   34.3380   -1.8550 H   0  0  0  0  0  0  0  0  0  0  0  0
   -5.2310   37.2582   -7.0091 H   0  0  0  0  0  0  0  0  0  0  0  0
   -7.0839   37.0926   -8.6123 H   0  0  0  0  0  0  0  0  0  0  0  0
   -9.0148   34.2172   -6.0595 H   0  0  0  0  0  0  0  0  0  0  0  0
   -7.1444   34.3258   -4.5085 H   0  0  0  0  0  0  0  0  0  0  0  0
   -4.0629   32.6247   -2.0275 H   0  0  0  0  0  0  0  0  0  0  0  0
   -5.7439   32.7444   -1.6224 H   0  0  0  0  0  0  0  0  0  0  0  0
   -4.5174   33.6255   -0.6993 H   0  0  0  0  0  0  0  0  0  0  0  0
   -5.4593   38.7266   -4.8537 H   0  0  0  0  0  0  0  0  0  0  0  0
   -4.8818   39.1561   -3.2673 H   0  0  0  0  0  0  0  0  0  0  0  0
   -2.8112   33.1002   -6.4628 H   0  0  0  0  0  0  0  0  0  0  0  0
   -3.2586   34.7877   -6.4439 H   0  0  0  0  0  0  0  0  0  0  0  0
   -4.5197   33.5481   -6.5603 H   0  0  0  0  0  0  0  0  0  0  0  0
   -1.8584   38.1102   -5.5576 H   0  0  0  0  0  0  0  0  0  0  0  0
  1  2  2  0
  1  4  1  0
  1 23  1  0
  2  3  1  0
  2  7  1  0
  3 29  1  0
  3 30  2  0
  4  5  1  0
  4  8  1  0
  5  6  1  0
  5 15  2  0
  6  7  1  0
  6 28  1  0
  7 16  1  0
  7 34  1  6
  8 13  1  0
  8  9  2  0
  9 10  1  0
  9 35  1  0
 10 11  2  0
 10 36  1  0
 11 12  1  0
 11 37  1  0
 12 13  2  0
 12 14  1  0
 13 38  1  0
 14 24  1  1
 14 25  1  0
 14 26  1  0
 16 21  1  0
 16 17  2  0
 17 18  1  0
 17 39  1  0
 18 19  2  0
 18 40  1  0
 19 20  1  0
 19 22  1  0
 20 21  2  0
 20 41  1  0
 21 42  1  0
 22 27  3  0
 23 43  1  6
 23 44  1  0
 23 45  1  0
 28 31  1  0
 28 46  1  6
 28 47  1  0
 29 48  1  6
 29 49  1  0
 29 50  1  0
 31 32  1  0
 31 33  2  0
 32 51  1  0
M  END
