16
     RDKit          3D

 54 56  0  0  1  0  0  0  0  0999 V2000
   -5.0552   34.5452   -2.5973 C   0  0  0  0  0  0  0  0  0  0  0  0
   -4.5556   34.7019   -3.8573 C   0  0  0  0  0  0  0  0  0  0  0  0
   -3.6474   33.7707   -4.5435 C   0  0  0  0  0  0  0  0  0  0  0  0
   -5.7789   35.5872   -2.0166 N   0  0  0  0  0  0  0  0  0  0  0  0
   -5.7918   36.8793   -2.5187 C   0  0  0  0  0  0  0  0  0  0  0  0
   -5.0141   37.0714   -3.6425 N   0  0  0  0  0  0  0  0  0  0  0  0
   -4.9230   35.9699   -4.6366 C   0  0  2  0  0  0  0  0  0  0  0  0
   -6.5332   35.3530   -0.8341 C   0  0  0  0  0  0  0  0  0  0  0  0
   -6.0643   35.8031    0.4044 C   0  0  0  0  0  0  0  0  0  0  0  0
   -6.8191   35.6229    1.5569 C   0  0  0  0  0  0  0  0  0  0  0  0
   -8.0732   35.0252    1.4755 C   0  0  0  0  0  0  0  0  0  0  0  0
   -8.5656   34.5722    0.2452 C   0  0  0  0  0  0  0  0  0  0  0  0
   -7.7641   34.6905   -0.8985 C   0  0  0  0  0  0  0  0  0  0  0  0
   -9.9614   33.9686    0.1521 C   0  0  1  0  0  0  0  0  0  0  0  0
   -6.4719   37.7875   -2.0210 O   0  0  0  0  0  0  0  0  0  0  0  0
   -6.0896   35.8443   -5.6137 C   0  0  0  0  0  0  0  0  0  0  0  0
   -6.0550   36.5864   -6.7968 C   0  0  0  0  0  0  0  0  0  0  0  0
   -7.1009   36.4986   -7.7078 C   0  0  0  0  0  0  0  0  0  0  0  0
   -8.1944   35.6913   -7.4236 C   0  0  0  0  0  0  0  0  0  0  0  0
   -8.1851   34.8675   -6.3014 C   0  0  0  0  0  0  0  0  0  0  0  0
   -7.1331   34.9461   -5.3949 C   0  0  0  0  0  0  0  0  0  0  0  0
   -9.3727   35.7433   -8.2619 C   0  0  0  0  0  0  0  0  0  0  0  0
   -4.8129   33.3215   -1.6937 C   0  0  2  0  0  0  0  0  0  0  0  0
  -10.2492   33.2449    1.2358 F   0  0  0  0  0  0  0  0  0  0  0  0
  -10.8563   34.9497    0.0379 F   0  0  0  0  0  0  0  0  0  0  0  0
  -10.0609   33.1876   -0.9183 F   0  0  0  0  0  0  0  0  0  0  0  0
  -10.3194   35.8284   -8.9236 N   0  0  0  0  0  0  0  0  0  0  0  0
   -4.7376   38.4620   -4.0958 C   0  0  1  0  0  0  0  0  0  0  0  0
   -3.6009   33.9216   -5.9122 O   0  0  0  0  0  0  0  0  0  0  0  0
   -2.9751   32.9483   -3.9276 O   0  0  0  0  0  0  0  0  0  0  0  0
   -2.6839   33.1752   -6.7181 C   0  0  1  0  0  0  0  0  0  0  0  0
   -2.8843   31.6546   -6.5837 C   0  0  2  0  0  0  0  0  0  0  0  0
   -3.3357   38.7191   -4.6932 C   0  0  0  0  0  0  0  0  0  0  0  0
   -2.6964   37.8010   -5.2582 O   0  0  0  0  0  0  0  0  0  0  0  0
   -2.9103   39.8864   -4.5852 O   0  0  0  0  0  0  0  0  0  0  0  0
   -4.1206   36.1361   -5.3353 H   0  0  0  0  0  0  0  0  0  0  0  0
   -5.1034   36.2955    0.4723 H   0  0  0  0  0  0  0  0  0  0  0  0
   -6.4438   35.9652    2.5106 H   0  0  0  0  0  0  0  0  0  0  0  0
   -8.6658   34.9180    2.3743 H   0  0  0  0  0  0  0  0  0  0  0  0
   -8.1166   34.3144   -1.8501 H   0  0  0  0  0  0  0  0  0  0  0  0
   -5.2232   37.2459   -7.0133 H   0  0  0  0  0  0  0  0  0  0  0  0
   -7.0735   37.0909   -8.6110 H   0  0  0  0  0  0  0  0  0  0  0  0
   -9.0062   34.1976   -6.0853 H   0  0  0  0  0  0  0  0  0  0  0  0
   -7.1433   34.3138   -4.5184 H   0  0  0  0  0  0  0  0  0  0  0  0
   -3.9536   32.7245   -1.9438 H   0  0  0  0  0  0  0  0  0  0  0  0
   -5.6761   32.6576   -1.7193 H   0  0  0  0  0  0  0  0  0  0  0  0
   -4.6344   33.6092   -0.6619 H   0  0  0  0  0  0  0  0  0  0  0  0
   -5.4780   38.7325   -4.8450 H   0  0  0  0  0  0  0  0  0  0  0  0
   -4.8451   39.1619   -3.2651 H   0  0  0  0  0  0  0  0  0  0  0  0
   -2.8158   33.4562   -7.7673 H   0  0  0  0  0  0  0  0  0  0  0  0
   -1.6618   33.4564   -6.4556 H   0  0  0  0  0  0  0  0  0  0  0  0
   -2.1774   31.1002   -7.1806 H   0  0  0  0  0  0  0  0  0  0  0  0
   -3.9044   31.3801   -6.8365 H   0  0  0  0  0  0  0  0  0  0  0  0
   -2.7158   31.2910   -5.5775 H   0  0  0  0  0  0  0  0  0  0  0  0
  1  2  2  0
  1  4  1  0
  1 23  1  0
  2  3  1  0
  2  7  1  0
  3 29  1  0
  3 30  2  0
  4  5  1  0
  4  8  1  0
  5  6  1  0
  5 15  2  0
  6  7  1  0
  6 28  1  0
  7 16  1  0
  7 36  1  6
  8 13  1  0
  8  9  2  0
  9 10  1  0
  9 37  1  0
 10 11  2  0
 10 38  1  0
 11 12  1  0
 11 39  1  0
 12 13  2  0
 12 14  1  0
 13 40  1  0
 14 24  1  1
 14 25  1  0
 14 26  1  0
 16 21  1  0
 16 17  2  0
 17 18  1  0
 17 41  1  0
 18 19  2  0
 18 42  1  0
 19 20  1  0
 19 22  1  0
 20 21  2  0
 20 43  1  0
 21 44  1  0
 22 27  3  0
 23 45  1  6
 23 46  1  0
 23 47  1  0
 28 33  1  0
 28 48  1  6
 28 49  1  0
 29 31  1  0
 31 32  1  0
 31 50  1  6
 31 51  1  0
 32 52  1  6
 32 53  1  0
 32 54  1  0
 33 34  1  0
 33 35  2  0
M  CHG  1  34  -1
M  END
