6
     RDKit          3D

 55 58  0  0  1  0  0  0  0  0999 V2000
   -5.2156   38.1541   -1.4943 C   0  0  0  0  0  0  0  0  0  0  0  0
   -5.4105   37.1206   -2.3543 C   0  0  0  0  0  0  0  0  0  0  0  0
   -5.2165   37.3596   -3.7974 C   0  0  0  0  0  0  0  0  0  0  0  0
   -5.0951   38.6343   -4.2472 C   0  0  0  0  0  0  0  0  0  0  0  0
   -5.1891   39.8753   -3.3716 C   0  0  1  0  0  0  0  0  0  0  0  0
   -4.8172   39.5627   -1.9058 C   0  0  1  0  0  0  0  0  0  0  0  0
   -5.6411   35.8067   -1.9115 N   0  0  0  0  0  0  0  0  0  0  0  0
   -5.0831   34.7416   -2.6327 C   0  0  0  0  0  0  0  0  0  0  0  0
   -4.7165   34.8726   -3.9415 C   0  0  0  0  0  0  0  0  0  0  0  0
   -5.0464   36.1541   -4.7480 C   0  0  1  0  0  0  0  0  0  0  0  0
   -4.8196   39.0088   -5.5244 O   0  0  0  0  0  0  0  0  0  0  0  0
   -6.4322   35.5457   -0.7564 C   0  0  0  0  0  0  0  0  0  0  0  0
   -5.9424   35.8284    0.5202 C   0  0  0  0  0  0  0  0  0  0  0  0
   -6.6955   35.5715    1.6563 C   0  0  0  0  0  0  0  0  0  0  0  0
   -7.9344   34.9570    1.5396 C   0  0  0  0  0  0  0  0  0  0  0  0
   -8.4146   34.5559    0.2885 C   0  0  0  0  0  0  0  0  0  0  0  0
   -7.6639   34.8819   -0.8584 C   0  0  0  0  0  0  0  0  0  0  0  0
   -9.6616   33.7598    0.1999 N   0  0  0  0  0  0  0  0  0  0  0  0
  -10.0634   33.4286   -0.9059 O   0  0  0  0  0  0  0  0  0  0  0  0
  -10.2266   33.4290    1.2385 O   0  0  0  0  0  0  0  0  0  0  0  0
   -4.8622   33.6119   -1.8678 N   0  0  0  0  0  0  0  0  0  0  0  0
   -4.0458   33.7724   -4.6921 C   0  0  0  0  0  0  0  0  0  0  0  0
   -3.9011   34.0055   -6.0252 O   0  0  0  0  0  0  0  0  0  0  0  0
   -3.6579   32.7297   -4.1580 O   0  0  0  0  0  0  0  0  0  0  0  0
   -3.2958   33.0551   -6.8981 C   0  0  1  0  0  0  0  0  0  0  0  0
   -1.7634   33.1168   -6.8312 C   0  0  2  0  0  0  0  0  0  0  0  0
   -6.2031   35.9785   -5.7500 C   0  0  0  0  0  0  0  0  0  0  0  0
   -6.2046   36.7043   -6.9438 C   0  0  0  0  0  0  0  0  0  0  0  0
   -7.2792   36.6283   -7.8206 C   0  0  0  0  0  0  0  0  0  0  0  0
   -8.3632   35.8173   -7.5068 C   0  0  0  0  0  0  0  0  0  0  0  0
   -8.3443   35.0282   -6.3619 C   0  0  0  0  0  0  0  0  0  0  0  0
   -7.2638   35.1047   -5.4872 C   0  0  0  0  0  0  0  0  0  0  0  0
   -9.8972   35.8283   -8.6245 Br  0  0  0  0  0  0  0  0  0  0  0  0
   -5.2620   38.0048   -0.4350 H   0  0  0  0  0  0  0  0  0  0  0  0
   -4.5494   40.6838   -3.7275 H   0  0  0  0  0  0  0  0  0  0  0  0
   -6.2143   40.2442   -3.4275 H   0  0  0  0  0  0  0  0  0  0  0  0
   -5.2639   40.3000   -1.2407 H   0  0  0  0  0  0  0  0  0  0  0  0
   -3.7388   39.6496   -1.7675 H   0  0  0  0  0  0  0  0  0  0  0  0
   -4.1857   36.3545   -5.3910 H   0  0  0  0  0  0  0  0  0  0  0  0
   -4.9590   36.2537    0.6431 H   0  0  0  0  0  0  0  0  0  0  0  0
   -6.3010   35.8255    2.6311 H   0  0  0  0  0  0  0  0  0  0  0  0
   -8.4936   34.7373    2.4383 H   0  0  0  0  0  0  0  0  0  0  0  0
   -8.0202   34.5946   -1.8399 H   0  0  0  0  0  0  0  0  0  0  0  0
   -4.4450   32.7998   -2.3048 H   0  0  0  0  0  0  0  0  0  0  0  0
   -5.1920   33.5465   -0.9174 H   0  0  0  0  0  0  0  0  0  0  0  0
   -3.6541   32.0469   -6.6824 H   0  0  0  0  0  0  0  0  0  0  0  0
   -3.6201   33.2853   -7.9130 H   0  0  0  0  0  0  0  0  0  0  0  0
   -1.3193   32.4219   -7.5437 H   0  0  0  0  0  0  0  0  0  0  0  0
   -1.3956   32.8558   -5.8382 H   0  0  0  0  0  0  0  0  0  0  0  0
   -1.4021   34.1164   -7.0727 H   0  0  0  0  0  0  0  0  0  0  0  0
   -5.3781   37.3504   -7.1911 H   0  0  0  0  0  0  0  0  0  0  0  0
   -7.2916   37.2331   -8.7157 H   0  0  0  0  0  0  0  0  0  0  0  0
   -9.1807   34.3837   -6.1279 H   0  0  0  0  0  0  0  0  0  0  0  0
   -7.2831   34.5117   -4.5844 H   0  0  0  0  0  0  0  0  0  0  0  0
   -4.7874   39.9661   -5.5785 H   0  0  0  0  0  0  0  0  0  0  0  0
  1  2  2  0
  1  6  1  0
  1 34  1  0
  2  3  1  0
  2  7  1  0
  3  4  2  0
  3 10  1  0
  4  5  1  0
  4 11  1  0
  5  6  1  0
  5 35  1  6
  5 36  1  0
  6 37  1  1
  6 38  1  0
  7  8  1  0
  7 12  1  0
  8  9  2  0
  8 21  1  0
  9 10  1  0
  9 22  1  0
 10 27  1  0
 10 39  1  6
 11 55  1  0
 12 17  1  0
 12 13  2  0
 13 14  1  0
 13 40  1  0
 14 15  2  0
 14 41  1  0
 15 16  1  0
 15 42  1  0
 16 17  2  0
 16 18  1  0
 17 43  1  0
 18 19  2  0
 18 20  1  0
 21 44  1  0
 21 45  1  0
 22 23  1  0
 22 24  2  0
 23 25  1  0
 25 26  1  0
 25 46  1  1
 25 47  1  0
 26 48  1  6
 26 49  1  0
 26 50  1  0
 27 32  1  0
 27 28  2  0
 28 29  1  0
 28 51  1  0
 29 30  2  0
 29 52  1  0
 30 31  1  0
 30 33  1  0
 31 32  2  0
 31 53  1  0
 32 54  1  0
M  CHG  2  18   1  20  -1
M  END
