14
     RDKit          3D

 49 51  0  0  1  0  0  0  0  0999 V2000
   -5.0498   34.5410   -2.6005 C   0  0  0  0  0  0  0  0  0  0  0  0
   -4.5168   34.7082   -3.8476 C   0  0  0  0  0  0  0  0  0  0  0  0
   -3.5853   33.7723   -4.5148 C   0  0  0  0  0  0  0  0  0  0  0  0
   -5.8079   35.5660   -2.0226 N   0  0  0  0  0  0  0  0  0  0  0  0
   -5.8052   36.8657   -2.4948 C   0  0  0  0  0  0  0  0  0  0  0  0
   -5.0529   37.0356   -3.6096 N   0  0  0  0  0  0  0  0  0  0  0  0
   -4.8746   35.9867   -4.6366 C   0  0  2  0  0  0  0  0  0  0  0  0
   -6.5398   35.3454   -0.8330 C   0  0  0  0  0  0  0  0  0  0  0  0
   -6.0630   35.8023    0.4035 C   0  0  0  0  0  0  0  0  0  0  0  0
   -6.8195   35.6244    1.5594 C   0  0  0  0  0  0  0  0  0  0  0  0
   -8.0747   35.0298    1.4759 C   0  0  0  0  0  0  0  0  0  0  0  0
   -8.5650   34.5676    0.2472 C   0  0  0  0  0  0  0  0  0  0  0  0
   -7.7714   34.6938   -0.8981 C   0  0  0  0  0  0  0  0  0  0  0  0
   -9.9576   33.9622    0.1477 C   0  0  1  0  0  0  0  0  0  0  0  0
   -6.3977   37.8264   -2.0049 O   0  0  0  0  0  0  0  0  0  0  0  0
   -6.0568   35.8479   -5.6133 C   0  0  0  0  0  0  0  0  0  0  0  0
   -6.0454   36.5984   -6.7928 C   0  0  0  0  0  0  0  0  0  0  0  0
   -7.1039   36.5268   -7.6942 C   0  0  0  0  0  0  0  0  0  0  0  0
   -8.1887   35.6995   -7.4168 C   0  0  0  0  0  0  0  0  0  0  0  0
   -8.1708   34.8810   -6.2987 C   0  0  0  0  0  0  0  0  0  0  0  0
   -7.1137   34.9544   -5.3928 C   0  0  0  0  0  0  0  0  0  0  0  0
   -9.3767   35.7601   -8.2499 C   0  0  0  0  0  0  0  0  0  0  0  0
   -4.8237   33.3160   -1.6946 C   0  0  2  0  0  0  0  0  0  0  0  0
  -10.2453   33.2483    1.2369 F   0  0  0  0  0  0  0  0  0  0  0  0
  -10.8487   34.9446    0.0168 F   0  0  0  0  0  0  0  0  0  0  0  0
  -10.0630   33.1731   -0.9173 F   0  0  0  0  0  0  0  0  0  0  0  0
  -10.3270   35.8136   -8.9005 N   0  0  0  0  0  0  0  0  0  0  0  0
   -4.4417   37.8368   -3.6089 H   0  0  0  0  0  0  0  0  0  0  0  0
   -3.5918   33.8738   -5.8744 O   0  0  0  0  0  0  0  0  0  0  0  0
   -2.8505   32.9947   -3.9057 O   0  0  0  0  0  0  0  0  0  0  0  0
   -2.6795   33.1445   -6.6951 C   0  0  1  0  0  0  0  0  0  0  0  0
   -2.8799   31.6179   -6.6248 C   0  0  2  0  0  0  0  0  0  0  0  0
   -4.0631   36.2708   -5.3122 H   0  0  0  0  0  0  0  0  0  0  0  0
   -5.1101   36.3078    0.4667 H   0  0  0  0  0  0  0  0  0  0  0  0
   -6.4411   35.9721    2.5105 H   0  0  0  0  0  0  0  0  0  0  0  0
   -8.6725   34.9246    2.3713 H   0  0  0  0  0  0  0  0  0  0  0  0
   -8.1250   34.3380   -1.8565 H   0  0  0  0  0  0  0  0  0  0  0  0
   -5.2190   37.2612   -7.0118 H   0  0  0  0  0  0  0  0  0  0  0  0
   -7.0978   37.1443   -8.5793 H   0  0  0  0  0  0  0  0  0  0  0  0
   -8.9992   34.2191   -6.0806 H   0  0  0  0  0  0  0  0  0  0  0  0
   -7.1484   34.3260   -4.5158 H   0  0  0  0  0  0  0  0  0  0  0  0
   -4.1859   32.5297   -2.0804 H   0  0  0  0  0  0  0  0  0  0  0  0
   -5.7696   32.8273   -1.4788 H   0  0  0  0  0  0  0  0  0  0  0  0
   -4.3810   33.6483   -0.7599 H   0  0  0  0  0  0  0  0  0  0  0  0
   -2.8189   33.4748   -7.7261 H   0  0  0  0  0  0  0  0  0  0  0  0
   -1.6580   33.4195   -6.4292 H   0  0  0  0  0  0  0  0  0  0  0  0
   -2.1776   31.0993   -7.2750 H   0  0  0  0  0  0  0  0  0  0  0  0
   -3.8934   31.3470   -6.9172 H   0  0  0  0  0  0  0  0  0  0  0  0
   -2.7200   31.2231   -5.6225 H   0  0  0  0  0  0  0  0  0  0  0  0
  1  2  2  0
  1  4  1  0
  1 23  1  0
  2  3  1  0
  2  7  1  0
  3 29  1  0
  3 30  2  0
  4  5  1  0
  4  8  1  0
  5  6  1  0
  5 15  2  0
  6  7  1  0
  6 28  1  0
  7 16  1  0
  7 33  1  6
  8 13  1  0
  8  9  2  0
  9 10  1  0
  9 34  1  0
 10 11  2  0
 10 35  1  0
 11 12  1  0
 11 36  1  0
 12 13  2  0
 12 14  1  0
 13 37  1  0
 14 24  1  1
 14 25  1  0
 14 26  1  0
 16 21  1  0
 16 17  2  0
 17 18  1  0
 17 38  1  0
 18 19  2  0
 18 39  1  0
 19 20  1  0
 19 22  1  0
 20 21  2  0
 20 40  1  0
 21 41  1  0
 22 27  3  0
 23 42  1  6
 23 43  1  0
 23 44  1  0
 29 31  1  0
 31 32  1  0
 31 45  1  6
 31 46  1  0
 32 47  1  6
 32 48  1  0
 32 49  1  0
M  END
