cmpd 6 (ethyl)
     RDKit          3D

 42 44  0  0  1  0  0  0  0  0999 V2000
    0.8286  -10.0171   -2.8649 C   0  0  2  0  0  0  0  0  0  0  0  0
    1.1012   -9.3008   -5.2657 C   0  0  0  0  0  0  0  0  0  0  0  0
    2.9791   -9.2007   -3.6636 C   0  0  0  0  0  0  0  0  0  0  0  0
    3.9261   -8.6657   -4.6001 C   0  0  0  0  0  0  0  0  0  0  0  0
    3.4253   -8.5197   -5.9939 C   0  0  0  0  0  0  0  0  0  0  0  0
    4.0864   -8.0193   -7.2061 C   0  0  0  0  0  0  0  0  0  0  0  0
    2.9657   -8.1125   -8.0472 C   0  0  0  0  0  0  0  0  0  0  0  0
    2.0805   -8.8158   -6.2531 C   0  0  0  0  0  0  0  0  0  0  0  0
    0.5256   -8.7887   -1.9139 C   0  0  2  0  0  0  0  0  0  0  0  0
    1.6889   -9.4626   -3.9592 N   0  0  0  0  0  0  0  0  0  0  0  0
    1.7897   -8.5308   -7.6114 N   0  0  0  0  0  0  0  0  0  0  0  0
   -0.0747   -9.4181   -5.4525 O   0  0  0  0  0  0  0  0  0  0  0  0
    5.3215   -8.3826   -4.2140 C   0  0  0  0  0  0  0  0  0  0  0  0
    6.4256   -8.5538   -5.0346 C   0  0  0  0  0  0  0  0  0  0  0  0
    7.6951   -8.1507   -4.6416 C   0  0  0  0  0  0  0  0  0  0  0  0
    7.9430   -7.6183   -3.3662 C   0  0  0  0  0  0  0  0  0  0  0  0
    6.8378   -7.4280   -2.5337 C   0  0  0  0  0  0  0  0  0  0  0  0
    5.5388   -7.7685   -2.9419 C   0  0  0  0  0  0  0  0  0  0  0  0
    7.0436   -6.7257   -1.2020 C   0  0  0  0  0  0  0  0  0  0  0  0
    6.4996   -5.5615   -1.1207 O   0  0  0  0  0  0  0  0  0  0  0  0
    7.5554   -7.3137   -0.2001 N   0  0  0  0  0  0  0  0  0  0  0  0
    7.9907   -8.7314   -0.2107 C   0  0  1  0  0  0  0  0  0  0  0  0
    7.5856   -6.6697    1.1406 C   0  0  1  0  0  0  0  0  0  0  0  0
   -0.1085  -10.4149   -3.2543 H   0  0  0  0  0  0  0  0  0  0  0  0
    1.3469  -10.7933   -2.3019 H   0  0  0  0  0  0  0  0  0  0  0  0
    3.2269   -9.4004   -2.6317 H   0  0  0  0  0  0  0  0  0  0  0  0
    5.0877   -7.6676   -7.4075 H   0  0  0  0  0  0  0  0  0  0  0  0
    2.9729   -7.8334   -9.0917 H   0  0  0  0  0  0  0  0  0  0  0  0
   -0.1019   -9.1168   -1.0853 H   0  0  0  0  0  0  0  0  0  0  0  0
    0.9009   -8.6298   -8.0839 H   0  0  0  0  0  0  0  0  0  0  0  0
    6.3021   -8.9995   -6.0098 H   0  0  0  0  0  0  0  0  0  0  0  0
    8.5233   -8.2936   -5.3204 H   0  0  0  0  0  0  0  0  0  0  0  0
    8.9392   -7.3379   -3.0554 H   0  0  0  0  0  0  0  0  0  0  0  0
    4.7102   -7.5666   -2.2793 H   0  0  0  0  0  0  0  0  0  0  0  0
    7.8006   -9.1625   -1.1936 H   0  0  0  0  0  0  0  0  0  0  0  0
    9.0567   -8.7858    0.0100 H   0  0  0  0  0  0  0  0  0  0  0  0
    7.4346   -9.2878    0.5439 H   0  0  0  0  0  0  0  0  0  0  0  0
    7.1210   -5.6854    1.0815 H   0  0  0  0  0  0  0  0  0  0  0  0
    7.0387   -7.2875    1.8529 H   0  0  0  0  0  0  0  0  0  0  0  0
    8.6194   -6.5643    1.4698 H   0  0  0  0  0  0  0  0  0  0  0  0
    0.0074   -8.0124   -2.4769 H   0  0  0  0  0  0  0  0  0  0  0  0
    1.4628   -8.3908   -1.5245 H   0  0  0  0  0  0  0  0  0  0  0  0
  1  9  1  0
  1 10  1  0
  1 24  1  6
  1 25  1  0
  2  8  1  0
  2 10  1  0
  2 12  2  0
  3  4  2  0
  3 10  1  0
  3 26  1  0
  4  5  1  0
  4 13  1  0
  5  6  1  0
  5  8  2  0
  6  7  2  0
  6 27  1  0
  7 11  1  0
  7 28  1  0
  8 11  1  0
  9 29  1  1
  9 41  1  0
  9 42  1  0
 11 30  1  0
 13 14  2  0
 13 18  1  0
 14 15  1  0
 14 31  1  0
 15 16  2  0
 15 32  1  0
 16 17  1  0
 16 33  1  0
 17 18  2  0
 17 19  1  0
 18 34  1  0
 19 20  2  0
 19 21  1  0
 21 22  1  0
 21 23  1  0
 22 35  1  6
 22 36  1  0
 22 37  1  0
 23 38  1  6
 23 39  1  0
 23 40  1  0
M  END
