SBT_R
     RDKit          3D

 22 22  0  0  1  0  0  0  0  0999 V2000
   23.9318   18.3686   27.8365 S   0  0  0  0  0  0  0  0  0  0  0  0
   23.4547   17.2971   29.1853 C   0  0  0  0  0  0  0  0  0  0  0  0
   24.3543   16.5411   29.6702 N   0  0  0  0  0  0  0  0  0  0  0  0
   25.6319   16.6970   29.0268 C   0  0  2  0  0  0  0  0  0  0  0  0
   25.5368   17.5703   27.7773 C   0  0  2  0  0  0  0  0  0  0  0  0
   22.0074   17.3032   29.6873 C   0  0  1  0  0  0  0  0  0  0  0  0
   21.8558   18.2766   30.8857 C   0  0  2  0  0  0  0  0  0  0  0  0
   20.3996   18.6457   31.2117 C   0  0  1  0  0  0  0  0  0  0  0  0
   20.9790   17.6041   28.5713 C   0  0  1  0  0  0  0  0  0  0  0  0
   26.0171   15.7086   28.7736 H   0  0  0  0  0  0  0  0  0  0  0  0
   26.3098   17.1475   29.7521 H   0  0  0  0  0  0  0  0  0  0  0  0
   26.3120   18.3324   27.7466 H   0  0  0  0  0  0  0  0  0  0  0  0
   25.5886   16.9817   26.8608 H   0  0  0  0  0  0  0  0  0  0  0  0
   21.7836   16.3000   30.0549 H   0  0  0  0  0  0  0  0  0  0  0  0
   22.3774   19.2122   30.6741 H   0  0  0  0  0  0  0  0  0  0  0  0
   22.3366   17.8618   31.7735 H   0  0  0  0  0  0  0  0  0  0  0  0
   20.3573   19.3916   32.0053 H   0  0  0  0  0  0  0  0  0  0  0  0
   19.8889   19.0604   30.3419 H   0  0  0  0  0  0  0  0  0  0  0  0
   19.8344   17.7787   31.5525 H   0  0  0  0  0  0  0  0  0  0  0  0
   21.0638   16.8947   27.7506 H   0  0  0  0  0  0  0  0  0  0  0  0
   19.9567   17.5360   28.9434 H   0  0  0  0  0  0  0  0  0  0  0  0
   21.1088   18.6027   28.1536 H   0  0  0  0  0  0  0  0  0  0  0  0
  1  2  1  0
  1  5  1  0
  2  3  2  0
  2  6  1  0
  3  4  1  0
  4  5  1  0
  4 10  1  6
  4 11  1  0
  5 12  1  6
  5 13  1  0
  6  7  1  0
  6  9  1  0
  6 14  1  1
  7  8  1  0
  7 15  1  6
  7 16  1  0
  8 17  1  1
  8 18  1  0
  8 19  1  0
  9 20  1  6
  9 21  1  0
  9 22  1  0
M  END
