16 docked
     RDKit          3D

 54 59  0  0  1  0  0  0  0  0999 V2000
    6.0861    6.9343   17.0067 C   0  0  0  0  0  0  0  0  0  0  0  0
    7.2693    7.6596   17.1692 C   0  0  0  0  0  0  0  0  0  0  0  0
    7.3260    8.7281   18.0968 C   0  0  0  0  0  0  0  0  0  0  0  0
    4.9269    7.2360   17.7218 C   0  0  0  0  0  0  0  0  0  0  0  0
    4.9522    8.3059   18.6329 C   0  0  0  0  0  0  0  0  0  0  0  0
    6.1522    9.0217   18.7858 C   0  0  0  0  0  0  0  0  0  0  0  0
    5.8605   10.0217   19.6876 N   0  0  0  0  0  0  0  0  0  0  0  0
    4.5844    9.9466   20.1124 N   0  0  0  0  0  0  0  0  0  0  0  0
    4.0091    8.9401   19.5002 C   0  0  0  0  0  0  0  0  0  0  0  0
    2.6055    8.5838   19.7036 C   0  0  0  0  0  0  0  0  0  0  0  0
    1.7127    9.3316   20.4365 N   0  0  0  0  0  0  0  0  0  0  0  0
    1.9249    7.4759   19.2494 C   0  0  0  0  0  0  0  0  0  0  0  0
    0.5890    7.5463   19.7195 C   0  0  0  0  0  0  0  0  0  0  0  0
    0.4619    8.7487   20.4681 C   0  0  0  0  0  0  0  0  0  0  0  0
   -0.7449    9.1316   21.0628 C   0  0  0  0  0  0  0  0  0  0  0  0
   -1.8337    8.2654   20.9175 C   0  0  0  0  0  0  0  0  0  0  0  0
   -1.7286    7.0590   20.2104 C   0  0  0  0  0  0  0  0  0  0  0  0
   -0.5271    6.7068   19.5982 C   0  0  0  0  0  0  0  0  0  0  0  0
   -2.9007    6.0978   20.1413 C   0  0  2  0  0  0  0  0  0  0  0  0
   -3.1673    5.4188   21.4913 N   0  0  1  0  0  0  0  0  0  0  0  0
   -4.3840    4.4933   21.3705 C   0  0  1  0  0  0  0  0  0  0  0  0
   -4.7027    3.9191   22.7653 C   0  0  2  0  0  0  0  0  0  0  0  0
   -3.4917    3.1866   23.3730 C   0  0  2  0  0  0  0  0  0  0  0  0
   -2.2605    4.1070   23.4061 C   0  0  1  0  0  0  0  0  0  0  0  0
   -1.9343    4.6524   22.0052 C   0  0  2  0  0  0  0  0  0  0  0  0
    8.4212    7.3548   16.4016 N   0  0  0  0  0  0  0  0  0  0  0  0
    8.7278    6.1847   15.7420 C   0  0  0  0  0  0  0  0  0  0  0  0
    9.9599    6.4381   15.1808 C   0  0  0  0  0  0  0  0  0  0  0  0
   10.3720    7.6548   15.4672 N   0  0  0  0  0  0  0  0  0  0  0  0
    9.4001    8.2616   16.2282 N   0  0  0  0  0  0  0  0  0  0  0  0
    6.0284    6.1197   16.2820 H   0  0  0  0  0  0  0  0  0  0  0  0
    8.2221    9.3051   18.2541 H   0  0  0  0  0  0  0  0  0  0  0  0
    4.0292    6.6836   17.5408 H   0  0  0  0  0  0  0  0  0  0  0  0
    6.4924   10.7572   19.9985 H   0  0  0  0  0  0  0  0  0  0  0  0
    1.9647   10.2154   20.8542 H   0  0  0  0  0  0  0  0  0  0  0  0
    2.3142    6.6687   18.6669 H   0  0  0  0  0  0  0  0  0  0  0  0
   -0.8412   10.0507   21.6274 H   0  0  0  0  0  0  0  0  0  0  0  0
   -2.7696    8.5192   21.3924 H   0  0  0  0  0  0  0  0  0  0  0  0
   -0.4417    5.7708   19.0526 H   0  0  0  0  0  0  0  0  0  0  0  0
   -2.7252    5.3122   19.4084 H   0  0  0  0  0  0  0  0  0  0  0  0
   -3.8071    6.6304   19.8661 H   0  0  0  0  0  0  0  0  0  0  0  0
   -3.3712    6.1453   22.1412 H   0  0  0  0  0  0  0  0  0  0  0  0
   -5.2217    5.0898   21.0120 H   0  0  0  0  0  0  0  0  0  0  0  0
   -4.1557    3.7091   20.6496 H   0  0  0  0  0  0  0  0  0  0  0  0
   -5.5568    3.2353   22.6969 H   0  0  0  0  0  0  0  0  0  0  0  0
   -5.0133    4.7244   23.4347 H   0  0  0  0  0  0  0  0  0  0  0  0
   -3.2645    2.2971   22.7809 H   0  0  0  0  0  0  0  0  0  0  0  0
   -3.7256    2.8306   24.3770 H   0  0  0  0  0  0  0  0  0  0  0  0
   -2.4451    4.9373   24.0913 H   0  0  0  0  0  0  0  0  0  0  0  0
   -1.3945    3.5692   23.8096 H   0  0  0  0  0  0  0  0  0  0  0  0
   -1.1048    5.3498   22.0835 H   0  0  0  0  0  0  0  0  0  0  0  0
   -1.6841    3.8641   21.2985 H   0  0  0  0  0  0  0  0  0  0  0  0
    8.0693    5.3291   15.7202 H   0  0  0  0  0  0  0  0  0  0  0  0
   10.5454    5.7793   14.5527 H   0  0  0  0  0  0  0  0  0  0  0  0
  1  2  2  0
  1  4  1  0
  1 31  1  0
  2  3  1  0
  2 26  1  0
  3  6  2  0
  3 32  1  0
  4  5  2  0
  4 33  1  0
  5  6  1  0
  5  9  1  0
  6  7  1  0
  7  8  1  0
  7 34  1  0
  8  9  2  0
  9 10  1  0
 10 11  1  0
 10 12  2  0
 11 14  1  0
 11 35  1  0
 12 13  1  0
 12 36  1  0
 13 14  2  0
 13 18  1  0
 14 15  1  0
 15 16  2  0
 15 37  1  0
 16 17  1  0
 16 38  1  0
 17 18  2  0
 17 19  1  0
 18 39  1  0
 19 20  1  0
 19 40  1  6
 19 41  1  0
 20 21  1  0
 20 25  1  0
 20 42  1  1
 21 22  1  0
 21 43  1  6
 21 44  1  0
 22 23  1  0
 22 45  1  6
 22 46  1  0
 23 24  1  0
 23 47  1  6
 23 48  1  0
 24 25  1  0
 24 49  1  1
 24 50  1  0
 25 51  1  1
 25 52  1  0
 26 27  1  0
 26 30  1  0
 27 28  2  0
 27 53  1  0
 28 29  1  0
 28 54  1  0
 29 30  2  0
M  CHG  1  20   1
M  END
