11 docked
     RDKit          3D

 55 60  0  0  1  0  0  0  0  0999 V2000
    6.0816    6.9341   17.0103 C   0  0  0  0  0  0  0  0  0  0  0  0
    7.2569    7.6572   17.1729 C   0  0  0  0  0  0  0  0  0  0  0  0
    7.3242    8.7262   18.0881 C   0  0  0  0  0  0  0  0  0  0  0  0
    4.9215    7.2374   17.7255 C   0  0  0  0  0  0  0  0  0  0  0  0
    4.9513    8.3080   18.6348 C   0  0  0  0  0  0  0  0  0  0  0  0
    6.1512    9.0208   18.7812 C   0  0  0  0  0  0  0  0  0  0  0  0
    5.8651   10.0219   19.6844 N   0  0  0  0  0  0  0  0  0  0  0  0
    4.5876    9.9517   20.1116 N   0  0  0  0  0  0  0  0  0  0  0  0
    4.0101    8.9428   19.5015 C   0  0  0  0  0  0  0  0  0  0  0  0
    2.6043    8.5835   19.7036 C   0  0  0  0  0  0  0  0  0  0  0  0
    1.7118    9.3316   20.4360 N   0  0  0  0  0  0  0  0  0  0  0  0
    1.9257    7.4755   19.2489 C   0  0  0  0  0  0  0  0  0  0  0  0
    0.5901    7.5465   19.7191 C   0  0  0  0  0  0  0  0  0  0  0  0
    0.4612    8.7492   20.4681 C   0  0  0  0  0  0  0  0  0  0  0  0
   -0.7462    9.1307   21.0631 C   0  0  0  0  0  0  0  0  0  0  0  0
   -1.8360    8.2655   20.9196 C   0  0  0  0  0  0  0  0  0  0  0  0
   -1.7303    7.0588   20.2113 C   0  0  0  0  0  0  0  0  0  0  0  0
   -0.5272    6.7073   19.5994 C   0  0  0  0  0  0  0  0  0  0  0  0
   -2.9012    6.0957   20.1422 C   0  0  1  0  0  0  0  0  0  0  0  0
   -3.1665    5.4186   21.4900 N   0  0  1  0  0  0  0  0  0  0  0  0
   -4.3810    4.4948   21.3713 C   0  0  1  0  0  0  0  0  0  0  0  0
   -4.7015    3.9199   22.7660 C   0  0  1  0  0  0  0  0  0  0  0  0
   -3.4916    3.1861   23.3727 C   0  0  1  0  0  0  0  0  0  0  0  0
   -2.2620    4.1078   23.4061 C   0  0  1  0  0  0  0  0  0  0  0  0
   -1.9370    4.6535   22.0045 C   0  0  1  0  0  0  0  0  0  0  0  0
    8.4677    7.3262   16.3728 C   0  0  0  0  0  0  0  0  0  0  0  0
    8.7371    6.1547   15.6353 C   0  0  0  0  0  0  0  0  0  0  0  0
    9.9078    6.1745   15.0517 N   0  0  0  0  0  0  0  0  0  0  0  0
   10.4303    7.3507   15.4142 N   0  0  0  0  0  0  0  0  0  0  0  0
    9.5900    8.1051   16.1780 C   0  0  0  0  0  0  0  0  0  0  0  0
    6.0279    6.1175   16.2870 H   0  0  0  0  0  0  0  0  0  0  0  0
    8.2221    9.2990   18.2475 H   0  0  0  0  0  0  0  0  0  0  0  0
    4.0224    6.6844   17.5453 H   0  0  0  0  0  0  0  0  0  0  0  0
    6.5005   10.7560   19.9926 H   0  0  0  0  0  0  0  0  0  0  0  0
    1.9650   10.2146   20.8548 H   0  0  0  0  0  0  0  0  0  0  0  0
    2.3121    6.6665   18.6675 H   0  0  0  0  0  0  0  0  0  0  0  0
   -0.8416   10.0497   21.6272 H   0  0  0  0  0  0  0  0  0  0  0  0
   -2.7722    8.5187   21.3941 H   0  0  0  0  0  0  0  0  0  0  0  0
   -0.4409    5.7715   19.0536 H   0  0  0  0  0  0  0  0  0  0  0  0
   -3.8065    6.6298   19.8652 H   0  0  0  0  0  0  0  0  0  0  0  0
   -2.7244    5.3131   19.4062 H   0  0  0  0  0  0  0  0  0  0  0  0
   -3.3705    6.1447   22.1393 H   0  0  0  0  0  0  0  0  0  0  0  0
   -5.2203    5.0900   21.0121 H   0  0  0  0  0  0  0  0  0  0  0  0
   -4.1552    3.7083   20.6513 H   0  0  0  0  0  0  0  0  0  0  0  0
   -5.0118    4.7249   23.4357 H   0  0  0  0  0  0  0  0  0  0  0  0
   -5.5556    3.2364   22.6948 H   0  0  0  0  0  0  0  0  0  0  0  0
   -3.7255    2.8307   24.3767 H   0  0  0  0  0  0  0  0  0  0  0  0
   -3.2642    2.2971   22.7800 H   0  0  0  0  0  0  0  0  0  0  0  0
   -2.4475    4.9379   24.0910 H   0  0  0  0  0  0  0  0  0  0  0  0
   -1.3949    3.5707   23.8079 H   0  0  0  0  0  0  0  0  0  0  0  0
   -1.6849    3.8630   21.2998 H   0  0  0  0  0  0  0  0  0  0  0  0
   -1.1054    5.3494   22.0831 H   0  0  0  0  0  0  0  0  0  0  0  0
    8.0908    5.2900   15.5286 H   0  0  0  0  0  0  0  0  0  0  0  0
   11.3283    7.6637   15.0631 H   0  0  0  0  0  0  0  0  0  0  0  0
    9.8603    9.0935   16.5105 H   0  0  0  0  0  0  0  0  0  0  0  0
  1  2  2  0
  1  4  1  0
  1 31  1  0
  2  3  1  0
  2 26  1  0
  3  6  2  0
  3 32  1  0
  4  5  2  0
  4 33  1  0
  5  6  1  0
  5  9  1  0
  6  7  1  0
  7  8  1  0
  7 34  1  0
  8  9  2  0
  9 10  1  0
 10 11  1  0
 10 12  2  0
 11 14  1  0
 11 35  1  0
 12 13  1  0
 12 36  1  0
 13 14  2  0
 13 18  1  0
 14 15  1  0
 15 16  2  0
 15 37  1  0
 16 17  1  0
 16 38  1  0
 17 18  2  0
 17 19  1  0
 18 39  1  0
 19 20  1  0
 19 40  1  6
 19 41  1  0
 20 21  1  0
 20 25  1  0
 20 42  1  1
 21 22  1  0
 21 43  1  6
 21 44  1  0
 22 23  1  0
 22 45  1  1
 22 46  1  0
 23 24  1  0
 23 47  1  1
 23 48  1  0
 24 25  1  0
 24 49  1  1
 24 50  1  0
 25 51  1  6
 25 52  1  0
 26 27  1  0
 26 30  2  0
 27 28  2  0
 27 53  1  0
 28 29  1  0
 29 30  1  0
 29 54  1  0
 30 55  1  0
M  CHG  1  20   1
M  END
