4b
     RDKit          3D

 24 26  0  0  1  0  0  0  0  0999 V2000
   33.5761   40.8152   36.3818 C   0  0  0  0  0  0  0  0  0  0  0  0
   32.9155   39.8079   37.1070 C   0  0  0  0  0  0  0  0  0  0  0  0
   33.3770   42.2063   36.1170 C   0  0  0  0  0  0  0  0  0  0  0  0
   32.3124   43.0025   36.6057 N   0  0  0  0  0  0  0  0  0  0  0  0
   33.4255   38.4955   37.1275 C   0  0  0  0  0  0  0  0  0  0  0  0
   34.6148   38.1792   36.4134 C   0  0  0  0  0  0  0  0  0  0  0  0
   35.3036   39.1785   35.6925 C   0  0  0  0  0  0  0  0  0  0  0  0
   34.7736   40.4765   35.6843 C   0  0  0  0  0  0  0  0  0  0  0  0
   35.1578   41.6630   35.0799 N   0  0  0  0  0  0  0  0  0  0  0  0
   34.3172   42.7016   35.3532 N   0  0  0  0  0  0  0  0  0  0  0  0
   32.7080   37.4870   37.9387 C   0  0  0  0  0  0  0  0  0  0  0  0
   31.9325   37.6629   39.1375 C   0  0  0  0  0  0  0  0  0  0  0  0
   31.4843   36.3935   39.4562 C   0  0  0  0  0  0  0  0  0  0  0  0
   31.9743   35.5468   38.4752 N   0  0  0  0  0  0  0  0  0  0  0  0
   32.7190   36.1991   37.5509 N   0  0  0  0  0  0  0  0  0  0  0  0
   31.9998   40.0352   37.6271 H   0  0  0  0  0  0  0  0  0  0  0  0
   31.5374   42.5531   37.0983 H   0  0  0  0  0  0  0  0  0  0  0  0
   32.1125   43.9019   36.1818 H   0  0  0  0  0  0  0  0  0  0  0  0
   35.0036   37.1705   36.4417 H   0  0  0  0  0  0  0  0  0  0  0  0
   36.2074   38.9352   35.1515 H   0  0  0  0  0  0  0  0  0  0  0  0
   35.9861   41.8183   34.5082 H   0  0  0  0  0  0  0  0  0  0  0  0
   31.7270   38.5721   39.6774 H   0  0  0  0  0  0  0  0  0  0  0  0
   30.8754   36.0344   40.2736 H   0  0  0  0  0  0  0  0  0  0  0  0
   31.8394   34.5429   38.4487 H   0  0  0  0  0  0  0  0  0  0  0  0
  1  2  1  0
  1  3  1  0
  1  8  2  0
  2  5  2  0
  2 16  1  0
  3  4  1  0
  3 10  2  0
  4 17  1  0
  4 18  1  0
  5  6  1  0
  5 11  1  0
  6  7  2  0
  6 19  1  0
  7  8  1  0
  7 20  1  0
  8  9  1  0
  9 10  1  0
  9 21  1  0
 11 12  1  0
 11 15  2  0
 12 13  2  0
 12 22  1  0
 13 14  1  0
 13 23  1  0
 14 15  1  0
 14 24  1  0
M  END
