3
     RDKit          3D

 27 29  0  0  1  0  0  0  0  0999 V2000
   34.7057   40.4537   35.7102 C   0  0  0  0  0  0  0  0  0  0  0  0
   35.2963   39.1709   35.7041 C   0  0  0  0  0  0  0  0  0  0  0  0
   34.8346   41.6436   34.9666 C   0  0  0  0  0  0  0  0  0  0  0  0
   35.4966   41.6381   33.7499 N   0  0  0  0  0  0  0  0  0  0  0  0
   34.6363   38.1325   36.3784 C   0  0  0  0  0  0  0  0  0  0  0  0
   33.4243   38.3816   37.0782 C   0  0  0  0  0  0  0  0  0  0  0  0
   32.8943   39.6810   37.1623 C   0  0  0  0  0  0  0  0  0  0  0  0
   33.5422   40.7034   36.4908 C   0  0  0  0  0  0  0  0  0  0  0  0
   33.2607   42.0510   36.3179 N   0  0  0  0  0  0  0  0  0  0  0  0
   34.0620   42.6272   35.3816 N   0  0  0  0  0  0  0  0  0  0  0  0
   31.3086   35.2524   39.0776 C   0  0  0  0  0  0  0  0  0  0  0  0
   31.4198   36.5224   39.6789 C   0  0  0  0  0  0  0  0  0  0  0  0
   32.1098   37.5498   39.0142 C   0  0  0  0  0  0  0  0  0  0  0  0
   32.6951   37.3156   37.7468 C   0  0  0  0  0  0  0  0  0  0  0  0
   32.5734   36.0446   37.1435 C   0  0  0  0  0  0  0  0  0  0  0  0
   31.8840   35.0125   37.8098 C   0  0  0  0  0  0  0  0  0  0  0  0
   36.1735   38.9649   35.1078 H   0  0  0  0  0  0  0  0  0  0  0  0
   35.9631   40.7640   33.5284 H   0  0  0  0  0  0  0  0  0  0  0  0
   36.1860   42.4049   33.6828 H   0  0  0  0  0  0  0  0  0  0  0  0
   35.0464   37.1328   36.3357 H   0  0  0  0  0  0  0  0  0  0  0  0
   31.9721   39.8872   37.6845 H   0  0  0  0  0  0  0  0  0  0  0  0
   32.4878   42.5634   36.7379 H   0  0  0  0  0  0  0  0  0  0  0  0
   30.7798   34.4653   39.5960 H   0  0  0  0  0  0  0  0  0  0  0  0
   30.9801   36.7067   40.6478 H   0  0  0  0  0  0  0  0  0  0  0  0
   32.1997   38.5117   39.4955 H   0  0  0  0  0  0  0  0  0  0  0  0
   33.0089   35.8530   36.1726 H   0  0  0  0  0  0  0  0  0  0  0  0
   31.7938   34.0388   37.3505 H   0  0  0  0  0  0  0  0  0  0  0  0
  1  2  1  0
  1  3  1  0
  1  8  2  0
  2  5  2  0
  2 17  1  0
  3  4  1  0
  3 10  2  0
  4 18  1  0
  4 19  1  0
  5  6  1  0
  5 20  1  0
  6  7  2  0
  6 14  1  0
  7  8  1  0
  7 21  1  0
  8  9  1  0
  9 10  1  0
  9 22  1  0
 11 12  2  0
 11 16  1  0
 11 23  1  0
 12 13  1  0
 12 24  1  0
 13 14  2  0
 13 25  1  0
 14 15  1  0
 15 16  2  0
 15 26  1  0
 16 27  1  0
M  END
