6
     RDKit          3D

 29 31  0  0  1  0  0  0  0  0999 V2000
   33.5782   40.8189   36.3717 C   0  0  0  0  0  0  0  0  0  0  0  0
   32.9062   39.7724   37.0348 C   0  0  0  0  0  0  0  0  0  0  0  0
   33.3772   42.2183   36.1601 C   0  0  0  0  0  0  0  0  0  0  0  0
   32.3060   42.9836   36.6507 N   0  0  0  0  0  0  0  0  0  0  0  0
   33.4346   38.4637   36.9864 C   0  0  0  0  0  0  0  0  0  0  0  0
   34.6488   38.1934   36.3150 C   0  0  0  0  0  0  0  0  0  0  0  0
   35.3304   39.2171   35.6423 C   0  0  0  0  0  0  0  0  0  0  0  0
   34.7851   40.5097   35.6750 C   0  0  0  0  0  0  0  0  0  0  0  0
   35.1639   41.7229   35.1251 N   0  0  0  0  0  0  0  0  0  0  0  0
   34.3192   42.7454   35.4276 N   0  0  0  0  0  0  0  0  0  0  0  0
   32.6901   37.3220   37.5009 C   0  0  0  0  0  0  0  0  0  0  0  0
   32.0893   36.3172   36.6917 C   0  0  0  0  0  0  0  0  0  0  0  0
   31.5007   35.3905   37.4497 N   0  0  0  0  0  0  0  0  0  0  0  0
   31.5378   35.9002   38.7657 O   0  0  0  0  0  0  0  0  0  0  0  0
   32.1691   37.1153   38.7377 C   0  0  0  0  0  0  0  0  0  0  0  0
   32.0636   37.9735   39.9299 C   0  0  1  0  0  0  0  0  0  0  0  0
   31.9222   36.3413   35.1853 C   0  0  1  0  0  0  0  0  0  0  0  0
   31.9655   39.9700   37.5266 H   0  0  0  0  0  0  0  0  0  0  0  0
   31.4992   42.5013   37.0559 H   0  0  0  0  0  0  0  0  0  0  0  0
   32.0970   43.8720   36.2040 H   0  0  0  0  0  0  0  0  0  0  0  0
   35.0365   37.1856   36.2769 H   0  0  0  0  0  0  0  0  0  0  0  0
   36.2429   39.0084   35.1039 H   0  0  0  0  0  0  0  0  0  0  0  0
   36.0032   41.9043   34.5755 H   0  0  0  0  0  0  0  0  0  0  0  0
   32.7058   38.8489   39.8709 H   0  0  0  0  0  0  0  0  0  0  0  0
   31.0556   38.3539   39.9220 H   0  0  0  0  0  0  0  0  0  0  0  0
   32.2720   37.4176   40.8473 H   0  0  0  0  0  0  0  0  0  0  0  0
   31.9021   35.3600   34.7299 H   0  0  0  0  0  0  0  0  0  0  0  0
   30.9732   36.8133   34.9290 H   0  0  0  0  0  0  0  0  0  0  0  0
   32.7020   36.9449   34.7205 H   0  0  0  0  0  0  0  0  0  0  0  0
  1  2  1  0
  1  3  1  0
  1  8  2  0
  2  5  2  0
  2 18  1  0
  3  4  1  0
  3 10  2  0
  4 19  1  0
  4 20  1  0
  5  6  1  0
  5 11  1  0
  6  7  2  0
  6 21  1  0
  7  8  1  0
  7 22  1  0
  8  9  1  0
  9 10  1  0
  9 23  1  0
 11 12  1  0
 11 15  2  0
 12 13  2  0
 12 17  1  0
 13 14  1  0
 14 15  1  0
 15 16  1  0
 16 24  1  6
 16 25  1  0
 16 26  1  0
 17 27  1  6
 17 28  1  0
 17 29  1  0
M  END
