7
     RDKit          3D

 29 31  0  0  1  0  0  0  0  0999 V2000
   33.5640   40.8013   36.3530 C   0  0  0  0  0  0  0  0  0  0  0  0
   32.8748   39.7514   36.9823 C   0  0  0  0  0  0  0  0  0  0  0  0
   33.3738   42.2068   36.1446 C   0  0  0  0  0  0  0  0  0  0  0  0
   32.3014   42.9853   36.6129 N   0  0  0  0  0  0  0  0  0  0  0  0
   33.4137   38.4478   36.9470 C   0  0  0  0  0  0  0  0  0  0  0  0
   34.6479   38.1873   36.3154 C   0  0  0  0  0  0  0  0  0  0  0  0
   35.3482   39.2193   35.6850 C   0  0  0  0  0  0  0  0  0  0  0  0
   34.7989   40.5084   35.7084 C   0  0  0  0  0  0  0  0  0  0  0  0
   35.1926   41.7213   35.1705 N   0  0  0  0  0  0  0  0  0  0  0  0
   34.3404   42.7419   35.4570 N   0  0  0  0  0  0  0  0  0  0  0  0
   32.7059   37.3419   37.5561 C   0  0  0  0  0  0  0  0  0  0  0  0
   32.6294   35.8213   36.7227 S   0  0  0  0  0  0  0  0  0  0  0  0
   31.5674   35.1968   37.9866 C   0  0  0  0  0  0  0  0  0  0  0  0
   31.3983   36.0710   39.0048 N   0  0  0  0  0  0  0  0  0  0  0  0
   32.0324   37.3080   38.7524 C   0  0  0  0  0  0  0  0  0  0  0  0
   30.8777   33.8584   37.9047 C   0  0  2  0  0  0  0  0  0  0  0  0
   31.9585   38.4337   39.7366 C   0  0  1  0  0  0  0  0  0  0  0  0
   31.9182   39.9529   37.4396 H   0  0  0  0  0  0  0  0  0  0  0  0
   31.4856   42.5211   37.0155 H   0  0  0  0  0  0  0  0  0  0  0  0
   32.1137   43.8879   36.1777 H   0  0  0  0  0  0  0  0  0  0  0  0
   35.0623   37.1914   36.2972 H   0  0  0  0  0  0  0  0  0  0  0  0
   36.2799   39.0229   35.1664 H   0  0  0  0  0  0  0  0  0  0  0  0
   36.0541   41.9149   34.6577 H   0  0  0  0  0  0  0  0  0  0  0  0
   29.8440   33.9959   37.5918 H   0  0  0  0  0  0  0  0  0  0  0  0
   30.8818   33.3698   38.8801 H   0  0  0  0  0  0  0  0  0  0  0  0
   31.3846   33.2190   37.1723 H   0  0  0  0  0  0  0  0  0  0  0  0
   32.8292   39.0799   39.6632 H   0  0  0  0  0  0  0  0  0  0  0  0
   31.1065   39.0712   39.5231 H   0  0  0  0  0  0  0  0  0  0  0  0
   31.9071   38.0318   40.7382 H   0  0  0  0  0  0  0  0  0  0  0  0
  1  2  1  0
  1  3  1  0
  1  8  2  0
  2  5  2  0
  2 18  1  0
  3  4  1  0
  3 10  2  0
  4 19  1  0
  4 20  1  0
  5  6  1  0
  5 11  1  0
  6  7  2  0
  6 21  1  0
  7  8  1  0
  7 22  1  0
  8  9  1  0
  9 10  1  0
  9 23  1  0
 11 12  1  0
 11 15  2  0
 12 13  1  0
 13 14  2  0
 13 16  1  0
 14 15  1  0
 15 17  1  0
 16 24  1  6
 16 25  1  0
 16 26  1  0
 17 27  1  1
 17 28  1  0
 17 29  1  0
M  END
