10
     RDKit          3D

 26 28  0  0  1  0  0  0  0  0999 V2000
   33.6066   40.7909   36.4117 C   0  0  0  0  0  0  0  0  0  0  0  0
   32.9695   39.7466   37.1106 C   0  0  0  0  0  0  0  0  0  0  0  0
   33.3728   42.1778   36.1654 C   0  0  0  0  0  0  0  0  0  0  0  0
   32.2829   42.9075   36.6342 N   0  0  0  0  0  0  0  0  0  0  0  0
   33.4445   38.4212   37.0503 C   0  0  0  0  0  0  0  0  0  0  0  0
   34.6331   38.1405   36.3208 C   0  0  0  0  0  0  0  0  0  0  0  0
   35.3318   39.1781   35.6609 C   0  0  0  0  0  0  0  0  0  0  0  0
   34.8027   40.4818   35.7043 C   0  0  0  0  0  0  0  0  0  0  0  0
   35.1607   41.6994   35.1366 N   0  0  0  0  0  0  0  0  0  0  0  0
   34.3067   42.7188   35.4276 N   0  0  0  0  0  0  0  0  0  0  0  0
   32.7041   37.3880   37.7971 C   0  0  0  0  0  0  0  0  0  0  0  0
   32.2342   37.6240   39.1202 C   0  0  0  0  0  0  0  0  0  0  0  0
   31.4921   36.6040   39.7524 C   0  0  0  0  0  0  0  0  0  0  0  0
   31.2604   35.3881   39.0730 C   0  0  0  0  0  0  0  0  0  0  0  0
   31.7118   35.2886   37.7382 C   0  0  0  0  0  0  0  0  0  0  0  0
   32.4491   36.2457   37.1241 N   0  0  0  0  0  0  0  0  0  0  0  0
   31.1180   34.0410   36.7364 Cl  0  0  0  0  0  0  0  0  0  0  0  0
   32.0660   39.9709   37.6545 H   0  0  0  0  0  0  0  0  0  0  0  0
   31.4657   42.4212   37.0248 H   0  0  0  0  0  0  0  0  0  0  0  0
   32.0956   43.8290   36.2468 H   0  0  0  0  0  0  0  0  0  0  0  0
   35.0017   37.1320   36.2769 H   0  0  0  0  0  0  0  0  0  0  0  0
   36.2353   38.9602   35.1072 H   0  0  0  0  0  0  0  0  0  0  0  0
   35.9944   41.8765   34.5824 H   0  0  0  0  0  0  0  0  0  0  0  0
   32.4680   38.5516   39.6301 H   0  0  0  0  0  0  0  0  0  0  0  0
   31.1027   36.7645   40.7444 H   0  0  0  0  0  0  0  0  0  0  0  0
   30.6651   34.6093   39.5237 H   0  0  0  0  0  0  0  0  0  0  0  0
  1  2  1  0
  1  3  1  0
  1  8  2  0
  2  5  2  0
  2 18  1  0
  3  4  1  0
  3 10  2  0
  4 19  1  0
  4 20  1  0
  5  6  1  0
  5 11  1  0
  6  7  2  0
  6 21  1  0
  7  8  1  0
  7 22  1  0
  8  9  1  0
  9 10  1  0
  9 23  1  0
 11 12  1  0
 11 16  2  0
 12 13  2  0
 12 24  1  0
 13 14  1  0
 13 25  1  0
 14 15  2  0
 14 26  1  0
 15 16  1  0
 15 17  1  0
M  END
