ZINC25258029
 OpenBabel10211212443D

 30 30  0  0  1  0  0  0  0  0999 V2000
   49.0300   52.1210   17.1620 C   0  0  0  0  0  0  0  0  0  0  0  0
   49.3530   53.1140   18.0140 N   0  0  0  0  0  0  0  0  0  0  0  0
   50.0580   52.9260   18.8370 H   0  0  0  0  0  0  0  0  0  0  0  0
   48.2520   52.3270   16.2560 O   0  0  0  0  0  0  0  0  0  0  0  0
   48.7870   54.3860   17.8530 N   0  0  0  0  0  0  0  0  0  0  0  0
   48.2410   54.6320   16.9300 H   0  0  0  0  0  0  0  0  0  0  0  0
   48.9150   55.3080   18.8280 C   0  0  0  0  0  0  0  0  0  0  0  0
   49.5170   55.0360   19.8470 O   0  0  0  0  0  0  0  0  0  0  0  0
   48.3180   56.6510   18.6580 C   0  0  0  0  0  0  0  0  0  0  0  0
   48.0830   57.4590   19.7700 C   0  0  0  0  0  0  0  0  0  0  0  0
   47.5270   58.7110   19.6050 C   0  0  0  0  0  0  0  0  0  0  0  0
   47.2040   59.1650   18.3390 C   0  0  0  0  0  0  0  0  0  0  0  0
   47.4340   58.3690   17.2310 C   0  0  0  0  0  0  0  0  0  0  0  0
   47.9900   57.1150   17.3830 C   0  0  0  0  0  0  0  0  0  0  0  0
   46.5970   60.5330   18.1650 C   0  0  0  0  0  0  0  0  0  0  0  0
   45.7540   60.5580   16.8890 C   0  0  0  0  0  0  0  0  0  0  0  0
   47.7100   61.5770   18.0610 C   0  0  0  0  0  0  0  0  0  0  0  0
   45.7080   60.8540   19.3680 C   0  0  0  0  0  0  0  0  0  0  0  0
   49.6380   50.7530   17.3360 C   0  0  1  0  0  0  0  0  0  0  0  0
   50.8240   50.6340   16.4830 N   0  0  0  0  0  0  0  0  0  0  0  0
   51.7780   51.0790   16.8030 H   0  0  0  0  0  0  0  0  0  0  0  0
   50.7460   49.9820   15.3070 C   0  0  0  0  0  0  0  0  0  0  0  0
   51.8570   49.7870   14.5690 N   0  0  0  0  0  0  0  0  0  0  0  0
   52.8270   50.1620   14.9260 H   0  0  0  0  0  0  0  0  0  0  0  0
   51.7930   49.2540   13.6090 H   0  0  0  0  0  0  0  0  0  0  0  0
   49.6730   49.5670   14.9110 O   0  0  0  0  0  0  0  0  0  0  0  0
   50.0400   50.5540   18.7980 C   0  0  2  0  0  0  0  0  0  0  0  0
   51.5660   50.5370   18.9100 C   0  0  0  0  0  0  0  0  0  0  0  0
   48.1940   48.8900   18.5410 C   0  0  0  0  0  0  0  0  0  0  0  0
   49.4760   49.2260   19.3060 C   0  0  0  0  0  0  0  0  0  0  0  0
  1 19  1  0  0  0  0
  1  2  1  0  0  0  0
  2  3  1  0  0  0  0
  4  1  2  0  0  0  0
  5  2  1  0  0  0  0
  5  7  1  0  0  0  0
  6  5  1  0  0  0  0
  7  8  2  0  0  0  0
  9  7  1  0  0  0  0
  9 10  2  0  0  0  0
 11 10  1  0  0  0  0
 12 11  2  0  0  0  0
 13 14  2  0  0  0  0
 13 12  1  0  0  0  0
 14  9  1  0  0  0  0
 15 12  1  0  0  0  0
 15 18  1  0  0  0  0
 16 15  1  0  0  0  0
 17 15  1  0  0  0  0
 19 20  1  1  0  0  0
 19 27  1  0  0  0  0
 20 21  1  0  0  0  0
 22 20  1  0  0  0  0
 23 24  1  0  0  0  0
 23 22  1  0  0  0  0
 25 23  1  0  0  0  0
 26 22  2  0  0  0  0
 27 28  1  6  0  0  0
 27 30  1  0  0  0  0
 29 30  1  0  0  0  0
M  END
>  <MODEL>
1

>  <REMARK>
  Name = ZINC25258029
                            x       y       z     vdW  Elec       q    Type
                         _______ _______ _______ _____ _____    ______ ____

>  <TORSDO>
F 7

>  <minimizedAffinity>
-8.0165609632687378

$$$$
ZINC25258029
 OpenBabel10211212443D

 30 30  0  0  1  0  0  0  0  0999 V2000
   49.5710   51.2930   18.3360 C   0  0  0  0  0  0  0  0  0  0  0  0
   48.7660   50.2160   18.4210 N   0  0  0  0  0  0  0  0  0  0  0  0
   48.8360   49.5430   19.2890 H   0  0  0  0  0  0  0  0  0  0  0  0
   49.4940   52.0350   17.3800 O   0  0  0  0  0  0  0  0  0  0  0  0
   47.8390   49.9520   17.4040 N   0  0  0  0  0  0  0  0  0  0  0  0
   47.2530   50.7750   16.9680 H   0  0  0  0  0  0  0  0  0  0  0  0
   47.6640   48.6910   16.9630 C   0  0  0  0  0  0  0  0  0  0  0  0
   48.3110   47.7830   17.4450 O   0  0  0  0  0  0  0  0  0  0  0  0
   46.6850   48.4130   15.8890 C   0  0  0  0  0  0  0  0  0  0  0  0
   45.3900   48.0040   16.2100 C   0  0  0  0  0  0  0  0  0  0  0  0
   44.4820   47.7460   15.2040 C   0  0  0  0  0  0  0  0  0  0  0  0
   44.8530   47.8930   13.8800 C   0  0  0  0  0  0  0  0  0  0  0  0
   46.1350   48.2980   13.5540 C   0  0  0  0  0  0  0  0  0  0  0  0
   47.0530   48.5600   14.5500 C   0  0  0  0  0  0  0  0  0  0  0  0
   43.8560   47.6100   12.7850 C   0  0  0  0  0  0  0  0  0  0  0  0
   42.5180   47.2070   13.4070 C   0  0  0  0  0  0  0  0  0  0  0  0
   44.3730   46.4710   11.9050 C   0  0  0  0  0  0  0  0  0  0  0  0
   43.6630   48.8660   11.9330 C   0  0  0  0  0  0  0  0  0  0  0  0
   50.5680   51.5760   19.4300 C   0  0  1  0  0  0  0  0  0  0  0  0
   51.7550   50.7390   19.2380 N   0  0  0  0  0  0  0  0  0  0  0  0
   52.5400   51.0510   18.5330 H   0  0  0  0  0  0  0  0  0  0  0  0
   51.8850   49.5860   19.9230 C   0  0  0  0  0  0  0  0  0  0  0  0
   53.0190   48.8650   19.8210 N   0  0  0  0  0  0  0  0  0  0  0  0
   53.8390   49.2180   19.1770 H   0  0  0  0  0  0  0  0  0  0  0  0
   53.1260   47.9240   20.3810 H   0  0  0  0  0  0  0  0  0  0  0  0
   50.9790   49.1970   20.6350 O   0  0  0  0  0  0  0  0  0  0  0  0
   50.9720   53.0510   19.3850 C   0  0  2  0  0  0  0  0  0  0  0  0
   52.4930   53.1600   19.2560 C   0  0  0  0  0  0  0  0  0  0  0  0
   51.0150   52.9500   21.8810 C   0  0  0  0  0  0  0  0  0  0  0  0
   50.5180   53.7440   20.6710 C   0  0  0  0  0  0  0  0  0  0  0  0
  1  2  1  0  0  0  0
  2  3  1  0  0  0  0
  4  1  2  0  0  0  0
  5  2  1  0  0  0  0
  6  5  1  0  0  0  0
  7  5  1  0  0  0  0
  7  8  2  0  0  0  0
  9 10  1  0  0  0  0
  9  7  1  0  0  0  0
 11 10  2  0  0  0  0
 12 11  1  0  0  0  0
 13 12  2  0  0  0  0
 13 14  1  0  0  0  0
 14  9  2  0  0  0  0
 15 16  1  0  0  0  0
 15 12  1  0  0  0  0
 17 15  1  0  0  0  0
 18 15  1  0  0  0  0
 19  1  1  6  0  0  0
 20 19  1  0  0  0  0
 20 22  1  0  0  0  0
 21 20  1  0  0  0  0
 22 26  2  0  0  0  0
 23 22  1  0  0  0  0
 23 25  1  0  0  0  0
 24 23  1  0  0  0  0
 27 28  1  1  0  0  0
 27 19  1  0  0  0  0
 27 30  1  0  0  0  0
 30 29  1  0  0  0  0
M  END
>  <MODEL>
2

>  <REMARK>
  Name = ZINC25258029
                            x       y       z     vdW  Elec       q    Type
                         _______ _______ _______ _____ _____    ______ ____

>  <TORSDO>
F 7

>  <minimizedAffinity>
-7.7217546134398427

$$$$
ZINC25258029
 OpenBabel10211212443D

 30 30  0  0  1  0  0  0  0  0999 V2000
   49.4840   53.1150   18.3570 C   0  0  0  0  0  0  0  0  0  0  0  0
   50.0500   54.3010   18.6530 N   0  0  0  0  0  0  0  0  0  0  0  0
   51.0790   54.3390   19.0400 H   0  0  0  0  0  0  0  0  0  0  0  0
   48.3500   53.0730   17.9310 O   0  0  0  0  0  0  0  0  0  0  0  0
   49.3270   55.4880   18.4710 N   0  0  0  0  0  0  0  0  0  0  0  0
   49.0180   55.7930   17.4600 H   0  0  0  0  0  0  0  0  0  0  0  0
   49.0110   56.2540   19.5330 C   0  0  0  0  0  0  0  0  0  0  0  0
   49.3520   55.9160   20.6500 O   0  0  0  0  0  0  0  0  0  0  0  0
   48.2480   57.5060   19.3410 C   0  0  0  0  0  0  0  0  0  0  0  0
   47.9140   57.9330   18.0550 C   0  0  0  0  0  0  0  0  0  0  0  0
   47.2010   59.1020   17.8830 C   0  0  0  0  0  0  0  0  0  0  0  0
   46.8180   59.8500   18.9810 C   0  0  0  0  0  0  0  0  0  0  0  0
   47.1460   59.4330   20.2590 C   0  0  0  0  0  0  0  0  0  0  0  0
   47.8580   58.2660   20.4460 C   0  0  0  0  0  0  0  0  0  0  0  0
   46.0400   61.1260   18.7860 C   0  0  0  0  0  0  0  0  0  0  0  0
   46.6940   62.2500   19.5910 C   0  0  0  0  0  0  0  0  0  0  0  0
   44.6010   60.9250   19.2650 C   0  0  0  0  0  0  0  0  0  0  0  0
   46.0350   61.4990   17.3020 C   0  0  0  0  0  0  0  0  0  0  0  0
   50.2630   51.8390   18.5530 C   0  0  1  0  0  0  0  0  0  0  0  0
   50.5410   51.6520   19.9800 N   0  0  0  0  0  0  0  0  0  0  0  0
   49.7540   51.2700   20.6470 H   0  0  0  0  0  0  0  0  0  0  0  0
   51.7580   51.9490   20.4740 C   0  0  0  0  0  0  0  0  0  0  0  0
   52.0440   51.6850   21.7640 N   0  0  0  0  0  0  0  0  0  0  0  0
   51.2840   51.2280   22.4140 H   0  0  0  0  0  0  0  0  0  0  0  0
   53.0390   51.9270   22.1690 H   0  0  0  0  0  0  0  0  0  0  0  0
   52.5990   52.4550   19.7560 O   0  0  0  0  0  0  0  0  0  0  0  0
   49.4450   50.6560   18.0330 C   0  0  2  0  0  0  0  0  0  0  0  0
   49.6280   49.4590   18.9680 C   0  0  0  0  0  0  0  0  0  0  0  0
   48.7740   50.4640   15.6340 C   0  0  0  0  0  0  0  0  0  0  0  0
   49.9230   50.2840   16.6280 C   0  0  0  0  0  0  0  0  0  0  0  0
  1  2  1  0  0  0  0
  2  3  1  0  0  0  0
  4  1  2  0  0  0  0
  5  2  1  0  0  0  0
  5  7  1  0  0  0  0
  6  5  1  0  0  0  0
  7  8  2  0  0  0  0
  9  7  1  0  0  0  0
  9 14  2  0  0  0  0
 10  9  1  0  0  0  0
 11 10  2  0  0  0  0
 11 12  1  0  0  0  0
 12 13  2  0  0  0  0
 13 14  1  0  0  0  0
 15 12  1  0  0  0  0
 15 17  1  0  0  0  0
 15 16  1  0  0  0  0
 18 15  1  0  0  0  0
 19  1  1  1  0  0  0
 19 20  1  0  0  0  0
 20 22  1  0  0  0  0
 20 21  1  0  0  0  0
 22 23  1  0  0  0  0
 23 25  1  0  0  0  0
 23 24  1  0  0  0  0
 26 22  2  0  0  0  0
 27 30  1  1  0  0  0
 27 19  1  0  0  0  0
 27 28  1  0  0  0  0
 29 30  1  0  0  0  0
M  END
>  <MODEL>
3

>  <REMARK>
  Name = ZINC25258029
                            x       y       z     vdW  Elec       q    Type
                         _______ _______ _______ _____ _____    ______ ____

>  <TORSDO>
F 7

>  <minimizedAffinity>
-7.7022218468114438

$$$$
ZINC25258029
 OpenBabel10211212443D

 30 30  0  0  1  0  0  0  0  0999 V2000
   49.5350   53.4570   18.5740 C   0  0  0  0  0  0  0  0  0  0  0  0
   50.0930   54.6700   18.7510 N   0  0  0  0  0  0  0  0  0  0  0  0
   51.1250   54.7530   19.1230 H   0  0  0  0  0  0  0  0  0  0  0  0
   48.3970   53.3660   18.1640 O   0  0  0  0  0  0  0  0  0  0  0  0
   49.3580   55.8280   18.4630 N   0  0  0  0  0  0  0  0  0  0  0  0
   49.2010   56.1330   17.4170 H   0  0  0  0  0  0  0  0  0  0  0  0
   48.8470   56.5690   19.4660 C   0  0  0  0  0  0  0  0  0  0  0  0
   49.0210   56.2320   20.6200 O   0  0  0  0  0  0  0  0  0  0  0  0
   48.0720   57.7910   19.1620 C   0  0  0  0  0  0  0  0  0  0  0  0
   47.7240   58.6730   20.1850 C   0  0  0  0  0  0  0  0  0  0  0  0
   47.0020   59.8120   19.8940 C   0  0  0  0  0  0  0  0  0  0  0  0
   46.6220   60.0800   18.5920 C   0  0  0  0  0  0  0  0  0  0  0  0
   46.9630   59.2100   17.5720 C   0  0  0  0  0  0  0  0  0  0  0  0
   47.6860   58.0680   17.8480 C   0  0  0  0  0  0  0  0  0  0  0  0
   45.8330   61.3260   18.2810 C   0  0  0  0  0  0  0  0  0  0  0  0
   45.4780   61.3460   16.7930 C   0  0  0  0  0  0  0  0  0  0  0  0
   46.6700   62.5590   18.6220 C   0  0  0  0  0  0  0  0  0  0  0  0
   44.5480   61.3360   19.1110 C   0  0  0  0  0  0  0  0  0  0  0  0
   50.3260   52.2120   18.8840 C   0  0  1  0  0  0  0  0  0  0  0  0
   50.9430   51.7070   17.6540 N   0  0  0  0  0  0  0  0  0  0  0  0
   51.8540   52.1840   17.2610 H   0  0  0  0  0  0  0  0  0  0  0  0
   50.3960   50.6610   17.0050 C   0  0  0  0  0  0  0  0  0  0  0  0
   51.0170   50.1350   15.9310 N   0  0  0  0  0  0  0  0  0  0  0  0
   51.9700   50.5610   15.5830 H   0  0  0  0  0  0  0  0  0  0  0  0
   50.5710   49.2810   15.4000 H   0  0  0  0  0  0  0  0  0  0  0  0
   49.3420   50.1920   17.3880 O   0  0  0  0  0  0  0  0  0  0  0  0
   51.4160   52.5400   19.9050 C   0  0  2  0  0  0  0  0  0  0  0  0
   52.5230   51.4870   19.8260 C   0  0  0  0  0  0  0  0  0  0  0  0
   51.4900   53.6270   22.1540 C   0  0  0  0  0  0  0  0  0  0  0  0
   50.8140   52.5430   21.3110 C   0  0  0  0  0  0  0  0  0  0  0  0
  1  2  1  0  0  0  0
  1 19  1  0  0  0  0
  2  3  1  0  0  0  0
  4  1  2  0  0  0  0
  5  2  1  0  0  0  0
  5  7  1  0  0  0  0
  6  5  1  0  0  0  0
  7  8  2  0  0  0  0
  9  7  1  0  0  0  0
  9 10  2  0  0  0  0
 11 10  1  0  0  0  0
 12 11  2  0  0  0  0
 13 14  2  0  0  0  0
 13 12  1  0  0  0  0
 14  9  1  0  0  0  0
 15 12  1  0  0  0  0
 15 17  1  0  0  0  0
 15 18  1  0  0  0  0
 16 15  1  0  0  0  0
 19 20  1  6  0  0  0
 19 27  1  0  0  0  0
 21 20  1  0  0  0  0
 22 26  2  0  0  0  0
 22 20  1  0  0  0  0
 23 22  1  0  0  0  0
 24 23  1  0  0  0  0
 25 23  1  0  0  0  0
 27 28  1  1  0  0  0
 27 30  1  0  0  0  0
 30 29  1  0  0  0  0
M  END
>  <MODEL>
4

>  <REMARK>
  Name = ZINC25258029
                            x       y       z     vdW  Elec       q    Type
                         _______ _______ _______ _____ _____    ______ ____

>  <TORSDO>
F 7

>  <minimizedAffinity>
-7.6925313837110538

$$$$
ZINC25258029
 OpenBabel10211212443D

 30 30  0  0  1  0  0  0  0  0999 V2000
   48.0010   49.6480   17.7170 C   0  0  0  0  0  0  0  0  0  0  0  0
   48.1300   50.9330   17.3340 N   0  0  0  0  0  0  0  0  0  0  0  0
   47.7960   51.2460   16.3330 H   0  0  0  0  0  0  0  0  0  0  0  0
   48.3690   49.3040   18.8200 O   0  0  0  0  0  0  0  0  0  0  0  0
   48.6910   51.8730   18.2090 N   0  0  0  0  0  0  0  0  0  0  0  0
   49.2120   51.5350   19.1170 H   0  0  0  0  0  0  0  0  0  0  0  0
   48.5900   53.1890   17.9390 C   0  0  0  0  0  0  0  0  0  0  0  0
   48.0150   53.5620   16.9360 O   0  0  0  0  0  0  0  0  0  0  0  0
   49.1820   54.1810   18.8630 C   0  0  0  0  0  0  0  0  0  0  0  0
   50.5540   54.1690   19.1190 C   0  0  0  0  0  0  0  0  0  0  0  0
   51.0990   55.0970   19.9820 C   0  0  0  0  0  0  0  0  0  0  0  0
   50.2900   56.0380   20.5920 C   0  0  0  0  0  0  0  0  0  0  0  0
   48.9290   56.0560   20.3430 C   0  0  0  0  0  0  0  0  0  0  0  0
   48.3710   55.1340   19.4820 C   0  0  0  0  0  0  0  0  0  0  0  0
   50.8930   57.0490   21.5340 C   0  0  0  0  0  0  0  0  0  0  0  0
   49.7890   57.9560   22.0810 C   0  0  0  0  0  0  0  0  0  0  0  0
   51.9230   57.8950   20.7840 C   0  0  0  0  0  0  0  0  0  0  0  0
   51.5770   56.3220   22.6930 C   0  0  0  0  0  0  0  0  0  0  0  0
   47.3970   48.6380   16.7750 C   0  0  1  0  0  0  0  0  0  0  0  0
   45.9370   48.6710   16.8950 N   0  0  0  0  0  0  0  0  0  0  0  0
   45.3530   49.3920   16.3030 H   0  0  0  0  0  0  0  0  0  0  0  0
   45.3090   47.8200   17.7290 C   0  0  0  0  0  0  0  0  0  0  0  0
   43.9630   47.7820   17.7660 N   0  0  0  0  0  0  0  0  0  0  0  0
   43.3760   48.4480   17.1160 H   0  0  0  0  0  0  0  0  0  0  0  0
   43.4500   47.0870   18.4480 H   0  0  0  0  0  0  0  0  0  0  0  0
   45.9580   47.0850   18.4480 O   0  0  0  0  0  0  0  0  0  0  0  0
   47.7990   48.9760   15.3390 C   0  0  2  0  0  0  0  0  0  0  0  0
   46.8170   48.3190   14.3660 C   0  0  0  0  0  0  0  0  0  0  0  0
   50.0690   49.5770   14.4830 C   0  0  0  0  0  0  0  0  0  0  0  0
   49.2110   48.4530   15.0680 C   0  0  0  0  0  0  0  0  0  0  0  0
  1  4  2  0  0  0  0
  2  1  1  0  0  0  0
  2  5  1  0  0  0  0
  3  2  1  0  0  0  0
  5  6  1  0  0  0  0
  7  5  1  0  0  0  0
  7  9  1  0  0  0  0
  8  7  2  0  0  0  0
  9 10  2  0  0  0  0
  9 14  1  0  0  0  0
 10 11  1  0  0  0  0
 11 12  2  0  0  0  0
 12 15  1  0  0  0  0
 13 12  1  0  0  0  0
 14 13  2  0  0  0  0
 15 16  1  0  0  0  0
 15 18  1  0  0  0  0
 17 15  1  0  0  0  0
 19 20  1  6  0  0  0
 19  1  1  0  0  0  0
 20 22  1  0  0  0  0
 21 20  1  0  0  0  0
 22 23  1  0  0  0  0
 22 26  2  0  0  0  0
 23 25  1  0  0  0  0
 24 23  1  0  0  0  0
 27 28  1  1  0  0  0
 27 19  1  0  0  0  0
 29 30  1  0  0  0  0
 30 27  1  0  0  0  0
M  END
>  <MODEL>
5

>  <REMARK>
  Name = ZINC25258029
                            x       y       z     vdW  Elec       q    Type
                         _______ _______ _______ _____ _____    ______ ____

>  <TORSDO>
F 7

>  <minimizedAffinity>
-7.6734930819624072

$$$$
ZINC25258029
 OpenBabel10211212443D

 30 30  0  0  1  0  0  0  0  0999 V2000
   50.4730   55.2280   20.5020 C   0  0  0  0  0  0  0  0  0  0  0  0
   50.6880   54.8760   19.2190 N   0  0  0  0  0  0  0  0  0  0  0  0
   51.1800   55.5790   18.5300 H   0  0  0  0  0  0  0  0  0  0  0  0
   49.9300   54.4530   21.2610 O   0  0  0  0  0  0  0  0  0  0  0  0
   50.2840   53.6140   18.7610 N   0  0  0  0  0  0  0  0  0  0  0  0
   50.8480   52.7170   19.0550 H   0  0  0  0  0  0  0  0  0  0  0  0
   49.2070   53.5020   17.9590 C   0  0  0  0  0  0  0  0  0  0  0  0
   48.5850   54.4940   17.6340 O   0  0  0  0  0  0  0  0  0  0  0  0
   48.7810   52.1710   17.4750 C   0  0  0  0  0  0  0  0  0  0  0  0
   49.7280   51.1740   17.2420 C   0  0  0  0  0  0  0  0  0  0  0  0
   49.3240   49.9340   16.7920 C   0  0  0  0  0  0  0  0  0  0  0  0
   47.9820   49.6790   16.5720 C   0  0  0  0  0  0  0  0  0  0  0  0
   47.0370   50.6630   16.8000 C   0  0  0  0  0  0  0  0  0  0  0  0
   47.4280   51.9070   17.2510 C   0  0  0  0  0  0  0  0  0  0  0  0
   47.5470   48.3230   16.0800 C   0  0  0  0  0  0  0  0  0  0  0  0
   46.3610   47.8350   16.9130 C   0  0  0  0  0  0  0  0  0  0  0  0
   48.7060   47.3340   16.2150 C   0  0  0  0  0  0  0  0  0  0  0  0
   47.1310   48.4220   14.6110 C   0  0  0  0  0  0  0  0  0  0  0  0
   50.9070   56.5840   20.9930 C   0  0  1  0  0  0  0  0  0  0  0  0
   52.1230   56.9940   20.2840 N   0  0  0  0  0  0  0  0  0  0  0  0
   52.1160   57.0840   19.1880 H   0  0  0  0  0  0  0  0  0  0  0  0
   53.2490   57.2580   20.9740 C   0  0  0  0  0  0  0  0  0  0  0  0
   54.3370   57.7290   20.3340 N   0  0  0  0  0  0  0  0  0  0  0  0
   54.3060   57.8960   19.2470 H   0  0  0  0  0  0  0  0  0  0  0  0
   55.2570   57.9450   20.8970 H   0  0  0  0  0  0  0  0  0  0  0  0
   53.2840   57.0730   22.1760 O   0  0  0  0  0  0  0  0  0  0  0  0
   49.7970   57.6030   20.7320 C   0  0  2  0  0  0  0  0  0  0  0  0
   49.3600   58.2330   22.0570 C   0  0  0  0  0  0  0  0  0  0  0  0
   47.3080   57.6010   20.5010 C   0  0  0  0  0  0  0  0  0  0  0  0
   48.6020   56.9000   20.0830 C   0  0  0  0  0  0  0  0  0  0  0  0
  1 19  1  0  0  0  0
  1  4  2  0  0  0  0
  2  1  1  0  0  0  0
  3  2  1  0  0  0  0
  5  6  1  0  0  0  0
  5  2  1  0  0  0  0
  7  5  1  0  0  0  0
  8  7  2  0  0  0  0
  9  7  1  0  0  0  0
 10  9  2  0  0  0  0
 11 10  1  0  0  0  0
 12 11  2  0  0  0  0
 12 13  1  0  0  0  0
 13 14  2  0  0  0  0
 14  9  1  0  0  0  0
 15 17  1  0  0  0  0
 15 12  1  0  0  0  0
 15 16  1  0  0  0  0
 18 15  1  0  0  0  0
 19 20  1  6  0  0  0
 20 22  1  0  0  0  0
 21 20  1  0  0  0  0
 22 26  2  0  0  0  0
 23 25  1  0  0  0  0
 23 22  1  0  0  0  0
 24 23  1  0  0  0  0
 27 30  1  1  0  0  0
 27 19  1  0  0  0  0
 27 28  1  0  0  0  0
 30 29  1  0  0  0  0
M  END
>  <MODEL>
6

>  <REMARK>
  Name = ZINC25258029
                            x       y       z     vdW  Elec       q    Type
                         _______ _______ _______ _____ _____    ______ ____

>  <TORSDO>
F 7

>  <minimizedAffinity>
-7.6720473991769005

$$$$
ZINC25258029
 OpenBabel10211212443D

 30 30  0  0  1  0  0  0  0  0999 V2000
   47.2900   50.0320   16.9840 C   0  0  0  0  0  0  0  0  0  0  0  0
   48.5850   50.2720   17.2680 N   0  0  0  0  0  0  0  0  0  0  0  0
   49.3590   49.5540   16.9570 H   0  0  0  0  0  0  0  0  0  0  0  0
   46.4370   50.8230   17.3260 O   0  0  0  0  0  0  0  0  0  0  0  0
   48.9470   51.4360   17.9600 N   0  0  0  0  0  0  0  0  0  0  0  0
   48.4450   52.3880   17.7340 H   0  0  0  0  0  0  0  0  0  0  0  0
   49.9110   51.3870   18.9010 C   0  0  0  0  0  0  0  0  0  0  0  0
   50.4650   50.3350   19.1510 O   0  0  0  0  0  0  0  0  0  0  0  0
   50.2930   52.6150   19.6320 C   0  0  0  0  0  0  0  0  0  0  0  0
   51.3840   52.6030   20.5010 C   0  0  0  0  0  0  0  0  0  0  0  0
   51.7350   53.7520   21.1780 C   0  0  0  0  0  0  0  0  0  0  0  0
   51.0080   54.9140   20.9980 C   0  0  0  0  0  0  0  0  0  0  0  0
   49.9250   54.9340   20.1380 C   0  0  0  0  0  0  0  0  0  0  0  0
   49.5630   53.7920   19.4530 C   0  0  0  0  0  0  0  0  0  0  0  0
   51.3970   56.1660   21.7410 C   0  0  0  0  0  0  0  0  0  0  0  0
   51.7390   55.8130   23.1900 C   0  0  0  0  0  0  0  0  0  0  0  0
   50.2320   57.1570   21.7200 C   0  0  0  0  0  0  0  0  0  0  0  0
   52.6170   56.8000   21.0710 C   0  0  0  0  0  0  0  0  0  0  0  0
   46.9020   48.7810   16.2390 C   0  0  1  0  0  0  0  0  0  0  0  0
   47.4940   47.6150   16.9010 N   0  0  0  0  0  0  0  0  0  0  0  0
   46.9810   47.1480   17.7550 H   0  0  0  0  0  0  0  0  0  0  0  0
   48.6680   47.1170   16.4660 C   0  0  0  0  0  0  0  0  0  0  0  0
   49.1630   45.9880   17.0100 N   0  0  0  0  0  0  0  0  0  0  0  0
   48.6110   45.4740   17.8100 H   0  0  0  0  0  0  0  0  0  0  0  0
   50.1210   45.5800   16.6550 H   0  0  0  0  0  0  0  0  0  0  0  0
   49.2790   47.6850   15.5820 O   0  0  0  0  0  0  0  0  0  0  0  0
   45.3780   48.6430   16.2300 C   0  0  2  0  0  0  0  0  0  0  0  0
   44.9260   47.8960   17.4870 C   0  0  0  0  0  0  0  0  0  0  0  0
   45.9080   48.1560   13.8380 C   0  0  0  0  0  0  0  0  0  0  0  0
   44.9440   47.8620   14.9890 C   0  0  0  0  0  0  0  0  0  0  0  0
  1  2  1  0  0  0  0
  1  4  2  0  0  0  0
  2  5  1  0  0  0  0
  3  2  1  0  0  0  0
  5  7  1  0  0  0  0
  6  5  1  0  0  0  0
  7  8  2  0  0  0  0
  7  9  1  0  0  0  0
  9 10  1  0  0  0  0
 10 11  2  0  0  0  0
 12 11  1  0  0  0  0
 12 15  1  0  0  0  0
 13 12  2  0  0  0  0
 14  9  2  0  0  0  0
 14 13  1  0  0  0  0
 15 16  1  0  0  0  0
 17 15  1  0  0  0  0
 18 15  1  0  0  0  0
 19 20  1  1  0  0  0
 19  1  1  0  0  0  0
 20 21  1  0  0  0  0
 22 20  1  0  0  0  0
 22 23  1  0  0  0  0
 23 24  1  0  0  0  0
 25 23  1  0  0  0  0
 26 22  2  0  0  0  0
 27 30  1  1  0  0  0
 27 19  1  0  0  0  0
 27 28  1  0  0  0  0
 29 30  1  0  0  0  0
M  END
>  <MODEL>
7

>  <REMARK>
  Name = ZINC25258029
                            x       y       z     vdW  Elec       q    Type
                         _______ _______ _______ _____ _____    ______ ____

>  <TORSDO>
F 7

>  <minimizedAffinity>
-7.5597540565250751

$$$$
ZINC25258029
 OpenBabel10211212443D

 30 30  0  0  1  0  0  0  0  0999 V2000
   49.4320   50.9090   18.0970 C   0  0  0  0  0  0  0  0  0  0  0  0
   48.6370   49.8520   18.3570 N   0  0  0  0  0  0  0  0  0  0  0  0
   48.6950   49.3470   19.3320 H   0  0  0  0  0  0  0  0  0  0  0  0
   49.3690   51.4660   17.0220 O   0  0  0  0  0  0  0  0  0  0  0  0
   47.7380   49.3950   17.3840 N   0  0  0  0  0  0  0  0  0  0  0  0
   46.9160   50.0440   17.0470 H   0  0  0  0  0  0  0  0  0  0  0  0
   47.8810   48.1610   16.8620 C   0  0  0  0  0  0  0  0  0  0  0  0
   48.7900   47.4450   17.2330 O   0  0  0  0  0  0  0  0  0  0  0  0
   46.9320   47.6780   15.8350 C   0  0  0  0  0  0  0  0  0  0  0  0
   46.1850   46.5220   16.0590 C   0  0  0  0  0  0  0  0  0  0  0  0
   45.3010   46.0770   15.0980 C   0  0  0  0  0  0  0  0  0  0  0  0
   45.1550   46.7760   13.9130 C   0  0  0  0  0  0  0  0  0  0  0  0
   45.8920   47.9240   13.6840 C   0  0  0  0  0  0  0  0  0  0  0  0
   46.7790   48.3800   14.6370 C   0  0  0  0  0  0  0  0  0  0  0  0
   44.1880   46.2850   12.8670 C   0  0  0  0  0  0  0  0  0  0  0  0
   43.9330   47.3970   11.8470 C   0  0  0  0  0  0  0  0  0  0  0  0
   42.8680   45.8940   13.5340 C   0  0  0  0  0  0  0  0  0  0  0  0
   44.7800   45.0680   12.1550 C   0  0  0  0  0  0  0  0  0  0  0  0
   50.3980   51.4000   19.1440 C   0  0  1  0  0  0  0  0  0  0  0  0
   51.6300   50.6100   19.0800 N   0  0  0  0  0  0  0  0  0  0  0  0
   52.4220   50.8830   18.3670 H   0  0  0  0  0  0  0  0  0  0  0  0
   51.7930   49.5480   19.8920 C   0  0  0  0  0  0  0  0  0  0  0  0
   52.9640   48.8810   19.9040 N   0  0  0  0  0  0  0  0  0  0  0  0
   53.7870   49.2030   19.2480 H   0  0  0  0  0  0  0  0  0  0  0  0
   53.0970   48.0140   20.5670 H   0  0  0  0  0  0  0  0  0  0  0  0
   50.8840   49.1920   20.6170 O   0  0  0  0  0  0  0  0  0  0  0  0
   50.7230   52.8730   18.8890 C   0  0  2  0  0  0  0  0  0  0  0  0
   52.2410   53.0630   18.8560 C   0  0  0  0  0  0  0  0  0  0  0  0
   50.5760   53.1800   21.3640 C   0  0  0  0  0  0  0  0  0  0  0  0
   50.1260   53.7290   20.0090 C   0  0  0  0  0  0  0  0  0  0  0  0
  1  2  1  0  0  0  0
  2  3  1  0  0  0  0
  4  1  2  0  0  0  0
  5  2  1  0  0  0  0
  6  5  1  0  0  0  0
  7  8  2  0  0  0  0
  7  5  1  0  0  0  0
  9 10  1  0  0  0  0
  9  7  1  0  0  0  0
 11 10  2  0  0  0  0
 12 11  1  0  0  0  0
 13 12  2  0  0  0  0
 13 14  1  0  0  0  0
 14  9  2  0  0  0  0
 15 17  1  0  0  0  0
 15 12  1  0  0  0  0
 16 15  1  0  0  0  0
 18 15  1  0  0  0  0
 19  1  1  6  0  0  0
 20 19  1  0  0  0  0
 20 22  1  0  0  0  0
 21 20  1  0  0  0  0
 22 23  1  0  0  0  0
 22 26  2  0  0  0  0
 23 25  1  0  0  0  0
 24 23  1  0  0  0  0
 27 28  1  1  0  0  0
 27 19  1  0  0  0  0
 27 30  1  0  0  0  0
 30 29  1  0  0  0  0
M  END
>  <MODEL>
8

>  <REMARK>
  Name = ZINC25258029
                            x       y       z     vdW  Elec       q    Type
                         _______ _______ _______ _____ _____    ______ ____

>  <TORSDO>
F 7

>  <minimizedAffinity>
-7.5506630458659236

$$$$
ZINC25258029
 OpenBabel10211212443D

 30 30  0  0  1  0  0  0  0  0999 V2000
   50.3320   51.3160   18.0940 C   0  0  0  0  0  0  0  0  0  0  0  0
   48.9860   51.3110   18.1620 N   0  0  0  0  0  0  0  0  0  0  0  0
   48.4760   51.7880   19.0120 H   0  0  0  0  0  0  0  0  0  0  0  0
   50.8940   50.7900   17.1570 O   0  0  0  0  0  0  0  0  0  0  0  0
   48.2350   50.6970   17.1500 N   0  0  0  0  0  0  0  0  0  0  0  0
   48.2710   51.0910   16.1240 H   0  0  0  0  0  0  0  0  0  0  0  0
   47.4690   49.6260   17.4370 C   0  0  0  0  0  0  0  0  0  0  0  0
   47.4310   49.1910   18.5710 O   0  0  0  0  0  0  0  0  0  0  0  0
   46.6770   48.9780   16.3690 C   0  0  0  0  0  0  0  0  0  0  0  0
   47.2040   48.8490   15.0840 C   0  0  0  0  0  0  0  0  0  0  0  0
   46.4600   48.2430   14.0930 C   0  0  0  0  0  0  0  0  0  0  0  0
   45.1930   47.7630   14.3720 C   0  0  0  0  0  0  0  0  0  0  0  0
   44.6630   47.8880   15.6440 C   0  0  0  0  0  0  0  0  0  0  0  0
   45.3970   48.4910   16.6440 C   0  0  0  0  0  0  0  0  0  0  0  0
   44.3850   47.1020   13.2850 C   0  0  0  0  0  0  0  0  0  0  0  0
   43.9710   45.7010   13.7390 C   0  0  0  0  0  0  0  0  0  0  0  0
   45.2280   46.9980   12.0130 C   0  0  0  0  0  0  0  0  0  0  0  0
   43.1340   47.9360   13.0010 C   0  0  0  0  0  0  0  0  0  0  0  0
   51.1390   51.9770   19.1820 C   0  0  1  0  0  0  0  0  0  0  0  0
   50.6970   53.3650   19.3420 N   0  0  0  0  0  0  0  0  0  0  0  0
   49.6720   53.5800   19.6760 H   0  0  0  0  0  0  0  0  0  0  0  0
   51.5460   54.3770   19.0780 C   0  0  0  0  0  0  0  0  0  0  0  0
   51.1740   55.6500   19.3190 N   0  0  0  0  0  0  0  0  0  0  0  0
   50.1750   55.8620   19.7290 H   0  0  0  0  0  0  0  0  0  0  0  0
   51.8670   56.4760   19.1030 H   0  0  0  0  0  0  0  0  0  0  0  0
   52.6490   54.1420   18.6230 O   0  0  0  0  0  0  0  0  0  0  0  0
   50.9370   51.2220   20.4970 C   0  0  2  0  0  0  0  0  0  0  0  0
   51.7250   51.9170   21.6100 C   0  0  0  0  0  0  0  0  0  0  0  0
   50.3760   48.8170   20.8770 C   0  0  0  0  0  0  0  0  0  0  0  0
   51.4350   49.7840   20.3410 C   0  0  0  0  0  0  0  0  0  0  0  0
  1  2  1  0  0  0  0
  2  3  1  0  0  0  0
  4  1  2  0  0  0  0
  5  7  1  0  0  0  0
  5  2  1  0  0  0  0
  6  5  1  0  0  0  0
  7  8  2  0  0  0  0
  9 14  1  0  0  0  0
  9  7  1  0  0  0  0
 10  9  2  0  0  0  0
 11 12  2  0  0  0  0
 11 10  1  0  0  0  0
 12 13  1  0  0  0  0
 13 14  2  0  0  0  0
 15 16  1  0  0  0  0
 15 12  1  0  0  0  0
 17 15  1  0  0  0  0
 18 15  1  0  0  0  0
 19  1  1  1  0  0  0
 19 20  1  0  0  0  0
 19 27  1  0  0  0  0
 20 21  1  0  0  0  0
 22 23  1  0  0  0  0
 22 20  1  0  0  0  0
 23 24  1  0  0  0  0
 25 23  1  0  0  0  0
 26 22  2  0  0  0  0
 27 30  1  6  0  0  0
 27 28  1  0  0  0  0
 30 29  1  0  0  0  0
M  END
>  <MODEL>
9

>  <REMARK>
  Name = ZINC25258029
                            x       y       z     vdW  Elec       q    Type
                         _______ _______ _______ _____ _____    ______ ____

>  <TORSDO>
F 7

>  <minimizedAffinity>
-7.3624713993585988

$$$$
ZINC34650494
 OpenBabel10211212453D

 31 32  0  0  0  0  0  0  0  0999 V2000
   50.0350   51.2650   17.7280 C   0  0  0  0  0  0  0  0  0  0  0  0
   49.0510   50.6490   18.3630 N   0  0  0  0  0  0  0  0  0  0  0  0
   51.0290   50.5390   17.1400 N   0  0  0  0  0  0  0  0  0  0  0  0
   51.8240   50.9860   16.8100 H   0  0  0  0  0  0  0  0  0  0  0  0
   50.9400   49.5780   17.0520 H   0  0  0  0  0  0  0  0  0  0  0  0
   50.0540   52.6290   17.6600 N   0  0  0  0  0  0  0  0  0  0  0  0
   50.8640   53.0900   17.3920 H   0  0  0  0  0  0  0  0  0  0  0  0
   48.8500   53.3950   17.9910 C   0  0  0  0  0  0  0  0  0  0  0  0
   50.3680   54.3270   19.7490 C   0  0  0  0  0  0  0  0  0  0  0  0
   50.6730   55.2640   20.7180 C   0  0  0  0  0  0  0  0  0  0  0  0
   49.7890   56.2930   20.9870 C   0  0  0  0  0  0  0  0  0  0  0  0
   50.1710   57.4700   22.2050 Cl  0  0  0  0  0  0  0  0  0  0  0  0
   48.5990   56.3840   20.2850 C   0  0  0  0  0  0  0  0  0  0  0  0
   47.4880   57.6740   20.6220 Cl  0  0  0  0  0  0  0  0  0  0  0  0
   48.2960   55.4450   19.3150 C   0  0  0  0  0  0  0  0  0  0  0  0
   49.1810   54.4180   19.0480 C   0  0  0  0  0  0  0  0  0  0  0  0
   49.0900   49.3180   18.5280 C   0  0  0  0  0  0  0  0  0  0  0  0
   50.0480   48.7980   19.0720 O   0  0  0  0  0  0  0  0  0  0  0  0
   47.9710   48.4840   18.0500 C   0  0  0  0  0  0  0  0  0  0  0  0
   46.8340   48.3110   18.8460 C   0  0  0  0  0  0  0  0  0  0  0  0
   45.7930   47.5320   18.3980 C   0  0  0  0  0  0  0  0  0  0  0  0
   44.3830   47.3190   19.3880 Cl  0  0  0  0  0  0  0  0  0  0  0  0
   45.8660   46.9130   17.1500 C   0  0  0  0  0  0  0  0  0  0  0  0
   46.9890   47.0780   16.3520 C   0  0  0  0  0  0  0  0  0  0  0  0
   48.0420   47.8660   16.7910 C   0  0  0  0  0  0  0  0  0  0  0  0
   44.8080   46.1260   16.7030 N   0  0  0  0  0  0  0  0  0  0  0  0
   44.7420   45.8880   15.7650 H   0  0  0  0  0  0  0  0  0  0  0  0
   44.1360   45.8160   17.3300 H   0  0  0  0  0  0  0  0  0  0  0  0
   49.1660   48.0370   15.9920 N   0  0  0  0  0  0  0  0  0  0  0  0
   49.5730   47.2710   15.5560 H   0  0  0  0  0  0  0  0  0  0  0  0
   49.5440   48.9210   15.8680 H   0  0  0  0  0  0  0  0  0  0  0  0
  1  2  2  0  0  0  0
  2 17  1  0  0  0  0
  3  1  1  0  0  0  0
  4  3  1  0  0  0  0
  5  3  1  0  0  0  0
  6  1  1  0  0  0  0
  6  8  1  0  0  0  0
  7  6  1  0  0  0  0
  8 16  1  0  0  0  0
  9 10  2  0  0  0  0
 10 11  1  0  0  0  0
 11 12  1  0  0  0  0
 13 14  1  0  0  0  0
 13 11  2  0  0  0  0
 15 13  1  0  0  0  0
 16 15  2  0  0  0  0
 16  9  1  0  0  0  0
 17 18  2  0  0  0  0
 19 17  1  0  0  0  0
 19 20  2  0  0  0  0
 21 20  1  0  0  0  0
 21 22  1  0  0  0  0
 23 21  2  0  0  0  0
 24 25  2  0  0  0  0
 24 23  1  0  0  0  0
 25 19  1  0  0  0  0
 26 23  1  0  0  0  0
 26 28  1  0  0  0  0
 27 26  1  0  0  0  0
 29 25  1  0  0  0  0
 30 29  1  0  0  0  0
 31 29  1  0  0  0  0
M  END
>  <MODEL>
1

>  <REMARK>
  Name = ZINC34650494
                            x       y       z     vdW  Elec       q    Type
                         _______ _______ _______ _____ _____    ______ ____

>  <TORSDO>
F 8

>  <minimizedAffinity>
-8.7354139619619016

$$$$
ZINC34650494
 OpenBabel10211212453D

 31 32  0  0  0  0  0  0  0  0999 V2000
   51.3330   50.7170   18.3090 C   0  0  0  0  0  0  0  0  0  0  0  0
   51.1020   52.0120   18.4520 N   0  0  0  0  0  0  0  0  0  0  0  0
   52.5700   50.2090   18.5790 N   0  0  0  0  0  0  0  0  0  0  0  0
   53.3630   50.7100   18.3310 H   0  0  0  0  0  0  0  0  0  0  0  0
   52.6560   49.3490   19.0170 H   0  0  0  0  0  0  0  0  0  0  0  0
   50.3310   49.8880   17.8920 N   0  0  0  0  0  0  0  0  0  0  0  0
   50.2550   49.6510   16.9550 H   0  0  0  0  0  0  0  0  0  0  0  0
   49.3700   49.3560   18.8620 C   0  0  0  0  0  0  0  0  0  0  0  0
   48.7100   47.7100   17.0970 C   0  0  0  0  0  0  0  0  0  0  0  0
   47.7610   46.9530   16.4350 C   0  0  0  0  0  0  0  0  0  0  0  0
   46.4340   47.0170   16.8210 C   0  0  0  0  0  0  0  0  0  0  0  0
   45.2420   46.0680   15.9910 Cl  0  0  0  0  0  0  0  0  0  0  0  0
   46.0570   47.8400   17.8690 C   0  0  0  0  0  0  0  0  0  0  0  0
   44.3930   47.9230   18.3530 Cl  0  0  0  0  0  0  0  0  0  0  0  0
   47.0090   48.5970   18.5290 C   0  0  0  0  0  0  0  0  0  0  0  0
   48.3340   48.5310   18.1420 C   0  0  0  0  0  0  0  0  0  0  0  0
   52.1110   52.8430   18.7510 C   0  0  0  0  0  0  0  0  0  0  0  0
   53.1280   52.8350   18.0790 O   0  0  0  0  0  0  0  0  0  0  0  0
   51.9910   53.7660   19.8950 C   0  0  0  0  0  0  0  0  0  0  0  0
   52.1190   55.1460   19.7010 C   0  0  0  0  0  0  0  0  0  0  0  0
   52.0060   56.0040   20.7690 C   0  0  0  0  0  0  0  0  0  0  0  0
   52.1660   57.7160   20.5240 Cl  0  0  0  0  0  0  0  0  0  0  0  0
   51.7640   55.5050   22.0490 C   0  0  0  0  0  0  0  0  0  0  0  0
   51.6350   54.1390   22.2530 C   0  0  0  0  0  0  0  0  0  0  0  0
   51.7410   53.2650   21.1820 C   0  0  0  0  0  0  0  0  0  0  0  0
   51.6510   56.3810   23.1250 N   0  0  0  0  0  0  0  0  0  0  0  0
   51.4160   57.3090   22.9740 H   0  0  0  0  0  0  0  0  0  0  0  0
   51.8070   56.0610   24.0280 H   0  0  0  0  0  0  0  0  0  0  0  0
   51.6070   51.8950   21.3840 N   0  0  0  0  0  0  0  0  0  0  0  0
   50.8530   51.5500   21.8870 H   0  0  0  0  0  0  0  0  0  0  0  0
   52.2670   51.2850   21.0200 H   0  0  0  0  0  0  0  0  0  0  0  0
  1  2  2  0  0  0  0
  1  3  1  0  0  0  0
  2 17  1  0  0  0  0
  3  5  1  0  0  0  0
  4  3  1  0  0  0  0
  6  1  1  0  0  0  0
  6  8  1  0  0  0  0
  7  6  1  0  0  0  0
  9 16  2  0  0  0  0
 10 11  2  0  0  0  0
 10  9  1  0  0  0  0
 11 13  1  0  0  0  0
 12 11  1  0  0  0  0
 13 14  1  0  0  0  0
 13 15  2  0  0  0  0
 16 15  1  0  0  0  0
 16  8  1  0  0  0  0
 17 19  1  0  0  0  0
 18 17  2  0  0  0  0
 19 25  1  0  0  0  0
 20 19  2  0  0  0  0
 20 21  1  0  0  0  0
 21 23  2  0  0  0  0
 22 21  1  0  0  0  0
 23 24  1  0  0  0  0
 23 26  1  0  0  0  0
 25 29  1  0  0  0  0
 25 24  2  0  0  0  0
 26 28  1  0  0  0  0
 27 26  1  0  0  0  0
 29 30  1  0  0  0  0
 31 29  1  0  0  0  0
M  END
>  <MODEL>
2

>  <REMARK>
  Name = ZINC34650494
                            x       y       z     vdW  Elec       q    Type
                         _______ _______ _______ _____ _____    ______ ____

>  <TORSDO>
F 8

>  <minimizedAffinity>
-8.5691194826299881

$$$$
ZINC34650494
 OpenBabel10211212453D

 31 32  0  0  0  0  0  0  0  0999 V2000
   51.0160   51.3040   20.9880 C   0  0  0  0  0  0  0  0  0  0  0  0
   50.7510   51.2260   19.6940 N   0  0  0  0  0  0  0  0  0  0  0  0
   51.0850   50.1690   21.7410 N   0  0  0  0  0  0  0  0  0  0  0  0
   50.2800   49.6600   21.9240 H   0  0  0  0  0  0  0  0  0  0  0  0
   51.9380   49.8710   22.0930 H   0  0  0  0  0  0  0  0  0  0  0  0
   51.2230   52.5220   21.5690 N   0  0  0  0  0  0  0  0  0  0  0  0
   50.9980   52.6590   22.5020 H   0  0  0  0  0  0  0  0  0  0  0  0
   51.7840   53.6230   20.7820 C   0  0  0  0  0  0  0  0  0  0  0  0
   51.5910   55.7820   22.0320 C   0  0  0  0  0  0  0  0  0  0  0  0
   50.9240   56.9540   22.3370 C   0  0  0  0  0  0  0  0  0  0  0  0
   49.7200   57.2440   21.7220 C   0  0  0  0  0  0  0  0  0  0  0  0
   48.8820   58.7150   22.1040 Cl  0  0  0  0  0  0  0  0  0  0  0  0
   49.1830   56.3600   20.8010 C   0  0  0  0  0  0  0  0  0  0  0  0
   47.6710   56.7220   20.0300 Cl  0  0  0  0  0  0  0  0  0  0  0  0
   49.8520   55.1880   20.4980 C   0  0  0  0  0  0  0  0  0  0  0  0
   51.0550   54.9000   21.1140 C   0  0  0  0  0  0  0  0  0  0  0  0
   50.4380   50.0430   19.1440 C   0  0  0  0  0  0  0  0  0  0  0  0
   51.2480   49.1330   19.1530 O   0  0  0  0  0  0  0  0  0  0  0  0
   49.1120   49.8450   18.5280 C   0  0  0  0  0  0  0  0  0  0  0  0
   48.2240   48.9050   19.0610 C   0  0  0  0  0  0  0  0  0  0  0  0
   46.9890   48.7220   18.4840 C   0  0  0  0  0  0  0  0  0  0  0  0
   45.8890   47.5530   19.1480 Cl  0  0  0  0  0  0  0  0  0  0  0  0
   46.6170   49.4710   17.3690 C   0  0  0  0  0  0  0  0  0  0  0  0
   47.4900   50.4060   16.8310 C   0  0  0  0  0  0  0  0  0  0  0  0
   48.7350   50.6030   17.4080 C   0  0  0  0  0  0  0  0  0  0  0  0
   45.3650   49.2800   16.7900 N   0  0  0  0  0  0  0  0  0  0  0  0
   44.9650   48.3970   16.7780 H   0  0  0  0  0  0  0  0  0  0  0  0
   44.8910   50.0310   16.4000 H   0  0  0  0  0  0  0  0  0  0  0  0
   49.6100   51.5440   16.8760 N   0  0  0  0  0  0  0  0  0  0  0  0
   50.3350   51.2590   16.2970 H   0  0  0  0  0  0  0  0  0  0  0  0
   49.4950   52.4840   17.0810 H   0  0  0  0  0  0  0  0  0  0  0  0
  1  6  1  0  0  0  0
  1  3  1  0  0  0  0
  2  1  2  0  0  0  0
  3  4  1  0  0  0  0
  3  5  1  0  0  0  0
  6  7  1  0  0  0  0
  8 16  1  0  0  0  0
  8  6  1  0  0  0  0
  9 10  1  0  0  0  0
 11 12  1  0  0  0  0
 11 10  2  0  0  0  0
 13 11  1  0  0  0  0
 14 13  1  0  0  0  0
 15 13  2  0  0  0  0
 15 16  1  0  0  0  0
 16  9  2  0  0  0  0
 17 18  2  0  0  0  0
 17  2  1  0  0  0  0
 19 20  1  0  0  0  0
 19 17  1  0  0  0  0
 21 20  2  0  0  0  0
 21 22  1  0  0  0  0
 23 21  1  0  0  0  0
 24 23  2  0  0  0  0
 24 25  1  0  0  0  0
 25 19  2  0  0  0  0
 26 23  1  0  0  0  0
 27 26  1  0  0  0  0
 28 26  1  0  0  0  0
 29 31  1  0  0  0  0
 29 25  1  0  0  0  0
 30 29  1  0  0  0  0
M  END
>  <MODEL>
3

>  <REMARK>
  Name = ZINC34650494
                            x       y       z     vdW  Elec       q    Type
                         _______ _______ _______ _____ _____    ______ ____

>  <TORSDO>
F 8

>  <minimizedAffinity>
-8.5170602971109641

$$$$
ZINC34650494
 OpenBabel10211212453D

 31 32  0  0  0  0  0  0  0  0999 V2000
   51.8160   52.4620   21.5060 C   0  0  0  0  0  0  0  0  0  0  0  0
   52.1410   53.6800   21.1030 N   0  0  0  0  0  0  0  0  0  0  0  0
   50.8060   52.2870   22.4060 N   0  0  0  0  0  0  0  0  0  0  0  0
   50.9620   52.4610   23.3470 H   0  0  0  0  0  0  0  0  0  0  0  0
   49.9340   51.9890   22.1040 H   0  0  0  0  0  0  0  0  0  0  0  0
   52.4910   51.3800   21.0190 N   0  0  0  0  0  0  0  0  0  0  0  0
   52.9920   50.8090   21.6220 H   0  0  0  0  0  0  0  0  0  0  0  0
   52.4590   51.0810   19.5850 C   0  0  0  0  0  0  0  0  0  0  0  0
   50.6490   49.3620   19.7480 C   0  0  0  0  0  0  0  0  0  0  0  0
   49.4000   48.8770   19.4070 C   0  0  0  0  0  0  0  0  0  0  0  0
   48.5990   49.5850   18.5290 C   0  0  0  0  0  0  0  0  0  0  0  0
   47.0320   48.9760   18.1000 Cl  0  0  0  0  0  0  0  0  0  0  0  0
   49.0490   50.7790   17.9920 C   0  0  0  0  0  0  0  0  0  0  0  0
   48.0470   51.6680   16.8890 Cl  0  0  0  0  0  0  0  0  0  0  0  0
   50.3000   51.2630   18.3340 C   0  0  0  0  0  0  0  0  0  0  0  0
   51.0980   50.5540   19.2120 C   0  0  0  0  0  0  0  0  0  0  0  0
   51.5560   54.7500   21.6630 C   0  0  0  0  0  0  0  0  0  0  0  0
   51.8520   55.0820   22.7970 O   0  0  0  0  0  0  0  0  0  0  0  0
   50.5540   55.5230   20.9050 C   0  0  0  0  0  0  0  0  0  0  0  0
   50.0450   55.0230   19.7020 C   0  0  0  0  0  0  0  0  0  0  0  0
   49.1120   55.7460   18.9980 C   0  0  0  0  0  0  0  0  0  0  0  0
   48.4820   55.1230   17.5040 Cl  0  0  0  0  0  0  0  0  0  0  0  0
   48.6680   56.9780   19.4790 C   0  0  0  0  0  0  0  0  0  0  0  0
   49.1660   57.4830   20.6710 C   0  0  0  0  0  0  0  0  0  0  0  0
   50.1040   56.7600   21.3930 C   0  0  0  0  0  0  0  0  0  0  0  0
   47.7220   57.7040   18.7600 N   0  0  0  0  0  0  0  0  0  0  0  0
   46.8010   57.4060   18.7310 H   0  0  0  0  0  0  0  0  0  0  0  0
   47.9860   58.5100   18.2890 H   0  0  0  0  0  0  0  0  0  0  0  0
   50.6010   57.2610   22.5900 N   0  0  0  0  0  0  0  0  0  0  0  0
   50.7160   58.2180   22.7050 H   0  0  0  0  0  0  0  0  0  0  0  0
   50.8310   56.6560   23.3110 H   0  0  0  0  0  0  0  0  0  0  0  0
  1  3  1  0  0  0  0
  2  1  2  0  0  0  0
  2 17  1  0  0  0  0
  3  4  1  0  0  0  0
  5  3  1  0  0  0  0
  6  1  1  0  0  0  0
  6  7  1  0  0  0  0
  8  6  1  0  0  0  0
 10  9  1  0  0  0  0
 11 10  2  0  0  0  0
 12 11  1  0  0  0  0
 13 15  2  0  0  0  0
 13 11  1  0  0  0  0
 14 13  1  0  0  0  0
 15 16  1  0  0  0  0
 16  8  1  0  0  0  0
 16  9  2  0  0  0  0
 17 18  2  0  0  0  0
 19 25  1  0  0  0  0
 19 17  1  0  0  0  0
 20 19  2  0  0  0  0
 21 23  2  0  0  0  0
 21 20  1  0  0  0  0
 22 21  1  0  0  0  0
 23 24  1  0  0  0  0
 24 25  2  0  0  0  0
 25 29  1  0  0  0  0
 26 23  1  0  0  0  0
 27 26  1  0  0  0  0
 28 26  1  0  0  0  0
 29 30  1  0  0  0  0
 29 31  1  0  0  0  0
M  END
>  <MODEL>
4

>  <REMARK>
  Name = ZINC34650494
                            x       y       z     vdW  Elec       q    Type
                         _______ _______ _______ _____ _____    ______ ____

>  <TORSDO>
F 8

>  <minimizedAffinity>
-8.4808553375306364

$$$$
ZINC34650494
 OpenBabel10211212453D

 31 32  0  0  0  0  0  0  0  0999 V2000
   50.3810   50.2200   18.1270 C   0  0  0  0  0  0  0  0  0  0  0  0
   49.1190   50.1930   18.5230 N   0  0  0  0  0  0  0  0  0  0  0  0
   50.6850   50.5180   16.8310 N   0  0  0  0  0  0  0  0  0  0  0  0
   50.1480   50.1500   16.1120 H   0  0  0  0  0  0  0  0  0  0  0  0
   51.4370   51.0950   16.6300 H   0  0  0  0  0  0  0  0  0  0  0  0
   51.3810   49.9500   19.0180 N   0  0  0  0  0  0  0  0  0  0  0  0
   51.3060   49.1900   19.6150 H   0  0  0  0  0  0  0  0  0  0  0  0
   52.5660   50.8100   19.0700 C   0  0  0  0  0  0  0  0  0  0  0  0
   51.9430   51.9210   21.2230 C   0  0  0  0  0  0  0  0  0  0  0  0
   51.6610   53.0490   21.9710 C   0  0  0  0  0  0  0  0  0  0  0  0
   51.6950   54.2980   21.3780 C   0  0  0  0  0  0  0  0  0  0  0  0
   51.3410   55.7140   22.3160 Cl  0  0  0  0  0  0  0  0  0  0  0  0
   52.0120   54.4180   20.0350 C   0  0  0  0  0  0  0  0  0  0  0  0
   52.0540   55.9840   19.2890 Cl  0  0  0  0  0  0  0  0  0  0  0  0
   52.2940   53.2870   19.2890 C   0  0  0  0  0  0  0  0  0  0  0  0
   52.2590   52.0400   19.8840 C   0  0  0  0  0  0  0  0  0  0  0  0
   48.1330   50.3460   17.6260 C   0  0  0  0  0  0  0  0  0  0  0  0
   48.0200   51.3950   17.0160 O   0  0  0  0  0  0  0  0  0  0  0  0
   47.1830   49.2450   17.3800 C   0  0  0  0  0  0  0  0  0  0  0  0
   46.4580   48.6920   18.4410 C   0  0  0  0  0  0  0  0  0  0  0  0
   45.5740   47.6650   18.2090 C   0  0  0  0  0  0  0  0  0  0  0  0
   44.6760   46.9810   19.5290 Cl  0  0  0  0  0  0  0  0  0  0  0  0
   45.3950   47.1710   16.9170 C   0  0  0  0  0  0  0  0  0  0  0  0
   46.1080   47.7110   15.8570 C   0  0  0  0  0  0  0  0  0  0  0  0
   46.9980   48.7510   16.0790 C   0  0  0  0  0  0  0  0  0  0  0  0
   44.4980   46.1310   16.6900 N   0  0  0  0  0  0  0  0  0  0  0  0
   43.6200   46.1480   17.1010 H   0  0  0  0  0  0  0  0  0  0  0  0
   44.7500   45.3890   16.1190 H   0  0  0  0  0  0  0  0  0  0  0  0
   47.7110   49.2980   15.0180 N   0  0  0  0  0  0  0  0  0  0  0  0
   48.6770   49.2080   14.9840 H   0  0  0  0  0  0  0  0  0  0  0  0
   47.2430   49.7690   14.3110 H   0  0  0  0  0  0  0  0  0  0  0  0
  1  2  2  0  0  0  0
  1  6  1  0  0  0  0
  3  1  1  0  0  0  0
  4  3  1  0  0  0  0
  5  3  1  0  0  0  0
  6  8  1  0  0  0  0
  6  7  1  0  0  0  0
  8 16  1  0  0  0  0
  9 10  2  0  0  0  0
 11 10  1  0  0  0  0
 11 12  1  0  0  0  0
 13 11  2  0  0  0  0
 14 13  1  0  0  0  0
 15 16  2  0  0  0  0
 15 13  1  0  0  0  0
 16  9  1  0  0  0  0
 17  2  1  0  0  0  0
 18 17  2  0  0  0  0
 19 17  1  0  0  0  0
 19 20  2  0  0  0  0
 21 20  1  0  0  0  0
 21 22  1  0  0  0  0
 23 21  2  0  0  0  0
 24 25  2  0  0  0  0
 24 23  1  0  0  0  0
 25 19  1  0  0  0  0
 26 23  1  0  0  0  0
 26 27  1  0  0  0  0
 28 26  1  0  0  0  0
 29 25  1  0  0  0  0
 30 29  1  0  0  0  0
 31 29  1  0  0  0  0
M  END
>  <MODEL>
5

>  <REMARK>
  Name = ZINC34650494
                            x       y       z     vdW  Elec       q    Type
                         _______ _______ _______ _____ _____    ______ ____

>  <TORSDO>
F 8

>  <minimizedAffinity>
-8.4516223057369722

$$$$
ZINC34650494
 OpenBabel10211212453D

 31 32  0  0  0  0  0  0  0  0999 V2000
   50.9200   50.6930   18.0420 C   0  0  0  0  0  0  0  0  0  0  0  0
   51.9190   51.0060   18.8510 N   0  0  0  0  0  0  0  0  0  0  0  0
   50.5120   51.5780   17.0870 N   0  0  0  0  0  0  0  0  0  0  0  0
   50.6180   51.3610   16.1480 H   0  0  0  0  0  0  0  0  0  0  0  0
   50.1170   52.4240   17.3480 H   0  0  0  0  0  0  0  0  0  0  0  0
   50.2990   49.4830   18.1610 N   0  0  0  0  0  0  0  0  0  0  0  0
   50.6140   48.7240   17.6470 H   0  0  0  0  0  0  0  0  0  0  0  0
   49.1570   49.3320   19.0660 C   0  0  0  0  0  0  0  0  0  0  0  0
   46.8370   48.4030   18.9510 C   0  0  0  0  0  0  0  0  0  0  0  0
   45.7330   47.9790   18.2350 C   0  0  0  0  0  0  0  0  0  0  0  0
   45.7460   48.0200   16.8530 C   0  0  0  0  0  0  0  0  0  0  0  0
   44.3600   47.4870   15.9550 Cl  0  0  0  0  0  0  0  0  0  0  0  0
   46.8660   48.4870   16.1860 C   0  0  0  0  0  0  0  0  0  0  0  0
   46.8850   48.5390   14.4510 Cl  0  0  0  0  0  0  0  0  0  0  0  0
   47.9700   48.9120   16.9040 C   0  0  0  0  0  0  0  0  0  0  0  0
   47.9540   48.8700   18.2850 C   0  0  0  0  0  0  0  0  0  0  0  0
   52.4550   52.2350   18.8110 C   0  0  0  0  0  0  0  0  0  0  0  0
   53.1570   52.5630   17.8700 O   0  0  0  0  0  0  0  0  0  0  0  0
   52.1960   53.1890   19.9060 C   0  0  0  0  0  0  0  0  0  0  0  0
   52.2120   54.5650   19.6560 C   0  0  0  0  0  0  0  0  0  0  0  0
   51.9700   55.4520   20.6780 C   0  0  0  0  0  0  0  0  0  0  0  0
   51.9910   57.1600   20.3660 Cl  0  0  0  0  0  0  0  0  0  0  0  0
   51.7090   54.9850   21.9660 C   0  0  0  0  0  0  0  0  0  0  0  0
   51.6910   53.6220   22.2260 C   0  0  0  0  0  0  0  0  0  0  0  0
   51.9270   52.7180   21.2010 C   0  0  0  0  0  0  0  0  0  0  0  0
   51.4650   55.8890   22.9970 N   0  0  0  0  0  0  0  0  0  0  0  0
   52.1020   56.5950   23.1840 H   0  0  0  0  0  0  0  0  0  0  0  0
   50.6560   55.8130   23.5270 H   0  0  0  0  0  0  0  0  0  0  0  0
   51.9050   51.3520   21.4560 N   0  0  0  0  0  0  0  0  0  0  0  0
   52.5070   50.9710   22.1150 H   0  0  0  0  0  0  0  0  0  0  0  0
   51.2860   50.7790   20.9770 H   0  0  0  0  0  0  0  0  0  0  0  0
  1  6  1  0  0  0  0
  1  2  2  0  0  0  0
  3  5  1  0  0  0  0
  3  1  1  0  0  0  0
  4  3  1  0  0  0  0
  6  8  1  0  0  0  0
  7  6  1  0  0  0  0
 10  9  2  0  0  0  0
 11 10  1  0  0  0  0
 12 11  1  0  0  0  0
 13 11  2  0  0  0  0
 13 15  1  0  0  0  0
 14 13  1  0  0  0  0
 15 16  2  0  0  0  0
 16  9  1  0  0  0  0
 16  8  1  0  0  0  0
 17  2  1  0  0  0  0
 17 19  1  0  0  0  0
 18 17  2  0  0  0  0
 19 25  1  0  0  0  0
 20 19  2  0  0  0  0
 20 21  1  0  0  0  0
 21 23  2  0  0  0  0
 22 21  1  0  0  0  0
 23 24  1  0  0  0  0
 23 26  1  0  0  0  0
 25 29  1  0  0  0  0
 25 24  2  0  0  0  0
 26 27  1  0  0  0  0
 26 28  1  0  0  0  0
 29 30  1  0  0  0  0
 31 29  1  0  0  0  0
M  END
>  <MODEL>
6

>  <REMARK>
  Name = ZINC34650494
                            x       y       z     vdW  Elec       q    Type
                         _______ _______ _______ _____ _____    ______ ____

>  <TORSDO>
F 8

>  <minimizedAffinity>
-8.3616109341650162

$$$$
ZINC34650494
 OpenBabel10211212453D

 31 32  0  0  0  0  0  0  0  0999 V2000
   52.0190   53.0080   20.9970 C   0  0  0  0  0  0  0  0  0  0  0  0
   52.2940   52.3470   19.8840 N   0  0  0  0  0  0  0  0  0  0  0  0
   51.6660   52.3280   22.1260 N   0  0  0  0  0  0  0  0  0  0  0  0
   52.2390   52.3580   22.9080 H   0  0  0  0  0  0  0  0  0  0  0  0
   50.8430   51.8160   22.1460 H   0  0  0  0  0  0  0  0  0  0  0  0
   52.0900   54.3710   21.0160 N   0  0  0  0  0  0  0  0  0  0  0  0
   52.6110   54.8390   20.3460 H   0  0  0  0  0  0  0  0  0  0  0  0
   51.3770   55.1280   22.0480 C   0  0  0  0  0  0  0  0  0  0  0  0
   49.9680   57.1950   22.0770 C   0  0  0  0  0  0  0  0  0  0  0  0
   49.0740   58.0630   21.4790 C   0  0  0  0  0  0  0  0  0  0  0  0
   48.6140   57.8110   20.2000 C   0  0  0  0  0  0  0  0  0  0  0  0
   47.4910   58.9010   19.4490 Cl  0  0  0  0  0  0  0  0  0  0  0  0
   49.0490   56.6870   19.5180 C   0  0  0  0  0  0  0  0  0  0  0  0
   48.4720   56.3670   17.9120 Cl  0  0  0  0  0  0  0  0  0  0  0  0
   49.9440   55.8190   20.1170 C   0  0  0  0  0  0  0  0  0  0  0  0
   50.4020   56.0740   21.3960 C   0  0  0  0  0  0  0  0  0  0  0  0
   52.1160   51.0190   19.8330 C   0  0  0  0  0  0  0  0  0  0  0  0
   53.0000   50.2700   20.2100 O   0  0  0  0  0  0  0  0  0  0  0  0
   50.8500   50.4640   19.3170 C   0  0  0  0  0  0  0  0  0  0  0  0
   50.0740   51.2030   18.4180 C   0  0  0  0  0  0  0  0  0  0  0  0
   48.8950   50.6840   17.9400 C   0  0  0  0  0  0  0  0  0  0  0  0
   47.9340   51.6040   16.8240 Cl  0  0  0  0  0  0  0  0  0  0  0  0
   48.4670   49.4200   18.3470 C   0  0  0  0  0  0  0  0  0  0  0  0
   49.2280   48.6780   19.2390 C   0  0  0  0  0  0  0  0  0  0  0  0
   50.4220   49.1900   19.7230 C   0  0  0  0  0  0  0  0  0  0  0  0
   47.2710   48.9010   17.8590 N   0  0  0  0  0  0  0  0  0  0  0  0
   46.4400   49.3820   17.9970 H   0  0  0  0  0  0  0  0  0  0  0  0
   47.2690   48.0580   17.3780 H   0  0  0  0  0  0  0  0  0  0  0  0
   51.1900   48.4460   20.6130 N   0  0  0  0  0  0  0  0  0  0  0  0
   51.2300   47.4810   20.5300 H   0  0  0  0  0  0  0  0  0  0  0  0
   51.6870   48.8930   21.3150 H   0  0  0  0  0  0  0  0  0  0  0  0
  1  6  1  0  0  0  0
  1  3  1  0  0  0  0
  2  1  2  0  0  0  0
  3  5  1  0  0  0  0
  3  4  1  0  0  0  0
  6  8  1  0  0  0  0
  7  6  1  0  0  0  0
 10  9  1  0  0  0  0
 11 10  2  0  0  0  0
 12 11  1  0  0  0  0
 13 15  2  0  0  0  0
 13 11  1  0  0  0  0
 14 13  1  0  0  0  0
 15 16  1  0  0  0  0
 16  8  1  0  0  0  0
 16  9  2  0  0  0  0
 17  2  1  0  0  0  0
 17 18  2  0  0  0  0
 19 25  1  0  0  0  0
 19 17  1  0  0  0  0
 20 19  2  0  0  0  0
 21 23  2  0  0  0  0
 21 20  1  0  0  0  0
 22 21  1  0  0  0  0
 23 24  1  0  0  0  0
 24 25  2  0  0  0  0
 25 29  1  0  0  0  0
 26 27  1  0  0  0  0
 26 23  1  0  0  0  0
 28 26  1  0  0  0  0
 29 31  1  0  0  0  0
 30 29  1  0  0  0  0
M  END
>  <MODEL>
7

>  <REMARK>
  Name = ZINC34650494
                            x       y       z     vdW  Elec       q    Type
                         _______ _______ _______ _____ _____    ______ ____

>  <TORSDO>
F 8

>  <minimizedAffinity>
-8.3480855442670769

$$$$
ZINC34650494
 OpenBabel10211212453D

 31 32  0  0  0  0  0  0  0  0999 V2000
   50.0260   51.5690   17.2750 C   0  0  0  0  0  0  0  0  0  0  0  0
   48.8030   51.2720   16.8670 N   0  0  0  0  0  0  0  0  0  0  0  0
   51.0520   50.6990   17.0500 N   0  0  0  0  0  0  0  0  0  0  0  0
   51.7240   50.9060   16.3820 H   0  0  0  0  0  0  0  0  0  0  0  0
   51.1080   49.8740   17.5560 H   0  0  0  0  0  0  0  0  0  0  0  0
   50.2610   52.7490   17.9220 N   0  0  0  0  0  0  0  0  0  0  0  0
   50.3780   53.5660   17.4130 H   0  0  0  0  0  0  0  0  0  0  0  0
   50.3350   52.7800   19.3840 C   0  0  0  0  0  0  0  0  0  0  0  0
   48.6670   54.6440   19.4250 C   0  0  0  0  0  0  0  0  0  0  0  0
   48.2300   55.8730   19.8820 C   0  0  0  0  0  0  0  0  0  0  0  0
   48.9870   56.5790   20.7990 C   0  0  0  0  0  0  0  0  0  0  0  0
   48.4400   58.1230   21.3720 Cl  0  0  0  0  0  0  0  0  0  0  0  0
   50.1830   56.0540   21.2580 C   0  0  0  0  0  0  0  0  0  0  0  0
   51.1360   56.9400   22.4070 Cl  0  0  0  0  0  0  0  0  0  0  0  0
   50.6190   54.8240   20.8000 C   0  0  0  0  0  0  0  0  0  0  0  0
   49.8600   54.1200   19.8830 C   0  0  0  0  0  0  0  0  0  0  0  0
   48.5490   50.0680   16.3330 C   0  0  0  0  0  0  0  0  0  0  0  0
   49.2030   49.6700   15.3850 O   0  0  0  0  0  0  0  0  0  0  0  0
   47.4770   49.2240   16.8940 C   0  0  0  0  0  0  0  0  0  0  0  0
   46.4030   48.8260   16.0900 C   0  0  0  0  0  0  0  0  0  0  0  0
   45.4050   48.0400   16.6160 C   0  0  0  0  0  0  0  0  0  0  0  0
   44.0730   47.5480   15.6160 Cl  0  0  0  0  0  0  0  0  0  0  0  0
   45.4580   47.6360   17.9500 C   0  0  0  0  0  0  0  0  0  0  0  0
   46.5180   48.0250   18.7570 C   0  0  0  0  0  0  0  0  0  0  0  0
   47.5330   48.8130   18.2350 C   0  0  0  0  0  0  0  0  0  0  0  0
   44.4430   46.8410   18.4750 N   0  0  0  0  0  0  0  0  0  0  0  0
   43.6900   47.2500   18.9280 H   0  0  0  0  0  0  0  0  0  0  0  0
   44.4890   45.8750   18.3860 H   0  0  0  0  0  0  0  0  0  0  0  0
   48.5990   49.1990   19.0400 N   0  0  0  0  0  0  0  0  0  0  0  0
   49.2970   49.7690   18.6790 H   0  0  0  0  0  0  0  0  0  0  0  0
   48.6450   48.9010   19.9610 H   0  0  0  0  0  0  0  0  0  0  0  0
  1  6  1  0  0  0  0
  2  1  2  0  0  0  0
  3  1  1  0  0  0  0
  3  5  1  0  0  0  0
  4  3  1  0  0  0  0
  6  8  1  0  0  0  0
  7  6  1  0  0  0  0
  8 16  1  0  0  0  0
  9 10  2  0  0  0  0
  9 16  1  0  0  0  0
 10 11  1  0  0  0  0
 11 13  2  0  0  0  0
 11 12  1  0  0  0  0
 13 14  1  0  0  0  0
 15 13  1  0  0  0  0
 16 15  2  0  0  0  0
 17  2  1  0  0  0  0
 17 19  1  0  0  0  0
 18 17  2  0  0  0  0
 19 25  2  0  0  0  0
 20 21  2  0  0  0  0
 20 19  1  0  0  0  0
 21 23  1  0  0  0  0
 22 21  1  0  0  0  0
 23 26  1  0  0  0  0
 23 24  2  0  0  0  0
 25 24  1  0  0  0  0
 25 29  1  0  0  0  0
 26 27  1  0  0  0  0
 28 26  1  0  0  0  0
 29 31  1  0  0  0  0
 30 29  1  0  0  0  0
M  END
>  <MODEL>
8

>  <REMARK>
  Name = ZINC34650494
                            x       y       z     vdW  Elec       q    Type
                         _______ _______ _______ _____ _____    ______ ____

>  <TORSDO>
F 8

>  <minimizedAffinity>
-8.1707809520927803

$$$$
ZINC34650494
 OpenBabel10211212453D

 31 32  0  0  0  0  0  0  0  0999 V2000
   50.3440   51.2680   18.0600 C   0  0  0  0  0  0  0  0  0  0  0  0
   51.3190   52.1490   18.2130 N   0  0  0  0  0  0  0  0  0  0  0  0
   50.0050   50.4380   19.0890 N   0  0  0  0  0  0  0  0  0  0  0  0
   49.0910   50.4160   19.4120 H   0  0  0  0  0  0  0  0  0  0  0  0
   50.6780   49.8720   19.4960 H   0  0  0  0  0  0  0  0  0  0  0  0
   49.6750   51.1910   16.8720 N   0  0  0  0  0  0  0  0  0  0  0  0
   48.9700   51.8250   16.6700 H   0  0  0  0  0  0  0  0  0  0  0  0
   50.0230   50.1490   15.9030 C   0  0  0  0  0  0  0  0  0  0  0  0
   48.8380   48.1370   16.8000 C   0  0  0  0  0  0  0  0  0  0  0  0
   47.8220   47.2000   16.7450 C   0  0  0  0  0  0  0  0  0  0  0  0
   46.8840   47.2560   15.7310 C   0  0  0  0  0  0  0  0  0  0  0  0
   45.6090   46.0810   15.6610 Cl  0  0  0  0  0  0  0  0  0  0  0  0
   46.9620   48.2510   14.7700 C   0  0  0  0  0  0  0  0  0  0  0  0
   45.7860   48.3220   13.4960 Cl  0  0  0  0  0  0  0  0  0  0  0  0
   47.9790   49.1870   14.8270 C   0  0  0  0  0  0  0  0  0  0  0  0
   48.9160   49.1290   15.8420 C   0  0  0  0  0  0  0  0  0  0  0  0
   52.0500   52.1510   19.3380 C   0  0  0  0  0  0  0  0  0  0  0  0
   52.8040   51.2230   19.5770 O   0  0  0  0  0  0  0  0  0  0  0  0
   51.9420   53.2750   20.2860 C   0  0  0  0  0  0  0  0  0  0  0  0
   52.1530   54.5870   19.8470 C   0  0  0  0  0  0  0  0  0  0  0  0
   52.0520   55.6330   20.7330 C   0  0  0  0  0  0  0  0  0  0  0  0
   52.3150   57.2600   20.1850 Cl  0  0  0  0  0  0  0  0  0  0  0  0
   51.7380   55.3930   22.0710 C   0  0  0  0  0  0  0  0  0  0  0  0
   51.5260   54.0970   22.5170 C   0  0  0  0  0  0  0  0  0  0  0  0
   51.6200   53.0340   21.6310 C   0  0  0  0  0  0  0  0  0  0  0  0
   51.6370   56.4580   22.9620 N   0  0  0  0  0  0  0  0  0  0  0  0
   51.1960   56.3360   23.8160 H   0  0  0  0  0  0  0  0  0  0  0  0
   52.0090   57.3230   22.7280 H   0  0  0  0  0  0  0  0  0  0  0  0
   51.4040   51.7340   22.0750 N   0  0  0  0  0  0  0  0  0  0  0  0
   51.8430   51.4170   22.8800 H   0  0  0  0  0  0  0  0  0  0  0  0
   50.8130   51.1450   21.5810 H   0  0  0  0  0  0  0  0  0  0  0  0
  1  2  2  0  0  0  0
  1  3  1  0  0  0  0
  2 17  1  0  0  0  0
  3  4  1  0  0  0  0
  3  5  1  0  0  0  0
  6  1  1  0  0  0  0
  7  6  1  0  0  0  0
  8  6  1  0  0  0  0
 10  9  1  0  0  0  0
 11 10  2  0  0  0  0
 12 11  1  0  0  0  0
 13 15  2  0  0  0  0
 13 11  1  0  0  0  0
 14 13  1  0  0  0  0
 15 16  1  0  0  0  0
 16  8  1  0  0  0  0
 16  9  2  0  0  0  0
 17 18  2  0  0  0  0
 17 19  1  0  0  0  0
 19 25  1  0  0  0  0
 20 19  2  0  0  0  0
 20 21  1  0  0  0  0
 21 23  2  0  0  0  0
 22 21  1  0  0  0  0
 23 24  1  0  0  0  0
 23 26  1  0  0  0  0
 25 29  1  0  0  0  0
 25 24  2  0  0  0  0
 26 27  1  0  0  0  0
 28 26  1  0  0  0  0
 29 30  1  0  0  0  0
 31 29  1  0  0  0  0
M  END
>  <MODEL>
9

>  <REMARK>
  Name = ZINC34650494
                            x       y       z     vdW  Elec       q    Type
                         _______ _______ _______ _____ _____    ______ ____

>  <TORSDO>
F 8

>  <minimizedAffinity>
-8.0157690323243997

$$$$
ZINC44251906
 OpenBabel10211212473D

 27 28  0  0  1  0  0  0  0  0999 V2000
   50.3160   54.7760   20.5220 C   0  0  0  0  0  0  0  0  0  0  0  0
   51.3490   54.6350   19.6490 C   0  0  0  0  0  0  0  0  0  0  0  0
   51.8290   53.3170   19.7970 C   0  0  0  0  0  0  0  0  0  0  0  0
   51.0730   52.7260   20.7420 C   0  0  0  0  0  0  0  0  0  0  0  0
   50.1640   53.6120   21.1820 O   0  0  0  0  0  0  0  0  0  0  0  0
   47.5170   57.2660   20.2730 C   0  0  0  0  0  0  0  0  0  0  0  0
   47.9870   58.2860   21.0810 C   0  0  0  0  0  0  0  0  0  0  0  0
   49.2130   58.1710   21.7100 C   0  0  0  0  0  0  0  0  0  0  0  0
   49.9780   57.0310   21.5340 C   0  0  0  0  0  0  0  0  0  0  0  0
   49.5060   55.9960   20.7170 C   0  0  0  0  0  0  0  0  0  0  0  0
   48.2680   56.1240   20.0870 C   0  0  0  0  0  0  0  0  0  0  0  0
   51.1840   56.9160   22.1510 O   0  0  0  0  0  0  0  0  0  0  0  0
   52.2710   57.6540   21.5910 C   0  0  0  0  0  0  0  0  0  0  0  0
   52.0960   57.7670   20.2070 F   0  0  0  0  0  0  0  0  0  0  0  0
   53.4720   56.9870   21.8540 F   0  0  0  0  0  0  0  0  0  0  0  0
   52.3130   58.9310   22.1610 F   0  0  0  0  0  0  0  0  0  0  0  0
   51.2260   51.3090   21.2300 C   0  0  2  0  0  0  0  0  0  0  0  0
   52.5480   51.1440   21.8520 N   0  0  0  0  0  0  0  0  0  0  0  0
   52.7190   51.9110   22.4840 H   0  0  0  0  0  0  0  0  0  0  0  0
   53.2580   51.1360   21.1350 H   0  0  0  0  0  0  0  0  0  0  0  0
   52.5740   50.2740   22.3610 H   0  0  0  0  0  0  0  0  0  0  0  0
   51.0950   50.3450   20.0500 C   0  0  0  0  0  0  0  0  0  0  0  0
   52.3940   49.6050   19.8570 C   0  0  0  0  0  0  0  0  0  0  0  0
   52.4960   48.3150   20.2310 N   0  0  0  0  0  0  0  0  0  0  0  0
   53.3320   47.8390   20.1070 H   0  0  0  0  0  0  0  0  0  0  0  0
   51.7340   47.8620   20.6250 H   0  0  0  0  0  0  0  0  0  0  0  0
   53.3470   50.1710   19.3650 O   0  0  0  0  0  0  0  0  0  0  0  0
  1 10  1  0  0  0  0
  1  5  1  0  0  0  0
  2  3  1  0  0  0  0
  2  1  2  0  0  0  0
  3  4  2  0  0  0  0
  4  5  1  0  0  0  0
  4 17  1  0  0  0  0
  6  7  1  0  0  0  0
  7  8  2  0  0  0  0
  9  8  1  0  0  0  0
  9 12  1  0  0  0  0
 10  9  2  0  0  0  0
 11  6  2  0  0  0  0
 11 10  1  0  0  0  0
 13 15  1  0  0  0  0
 13 12  1  0  0  0  0
 13 16  1  0  0  0  0
 14 13  1  0  0  0  0
 17 22  1  6  0  0  0
 17 18  1  0  0  0  0
 18 21  1  0  0  0  0
 18 19  1  0  0  0  0
 20 18  1  0  0  0  0
 23 22  1  0  0  0  0
 23 24  1  0  0  0  0
 24 26  1  0  0  0  0
 25 24  1  0  0  0  0
 27 23  2  0  0  0  0
M  END
>  <MODEL>
1

>  <REMARK>
  Name = ZINC44251906
                            x       y       z     vdW  Elec       q    Type
                         _______ _______ _______ _____ _____    ______ ____

>  <TORSDO>
F 7

>  <minimizedAffinity>
-8.7696004232512728

$$$$
ZINC44251906
 OpenBabel10211212473D

 27 28  0  0  1  0  0  0  0  0999 V2000
   47.8490   50.2730   16.4000 C   0  0  0  0  0  0  0  0  0  0  0  0
   47.6320   51.5960   16.6260 C   0  0  0  0  0  0  0  0  0  0  0  0
   48.7490   52.0740   17.3430 C   0  0  0  0  0  0  0  0  0  0  0  0
   49.5820   51.0310   17.5170 C   0  0  0  0  0  0  0  0  0  0  0  0
   49.0330   49.9430   16.9500 O   0  0  0  0  0  0  0  0  0  0  0  0
   46.2870   48.2380   13.6580 C   0  0  0  0  0  0  0  0  0  0  0  0
   45.2360   47.6370   14.3300 C   0  0  0  0  0  0  0  0  0  0  0  0
   45.0320   47.8870   15.6740 C   0  0  0  0  0  0  0  0  0  0  0  0
   45.8780   48.7450   16.3560 C   0  0  0  0  0  0  0  0  0  0  0  0
   46.9410   49.3560   15.6810 C   0  0  0  0  0  0  0  0  0  0  0  0
   47.1380   49.0950   14.3240 C   0  0  0  0  0  0  0  0  0  0  0  0
   45.6770   48.9930   17.6780 O   0  0  0  0  0  0  0  0  0  0  0  0
   46.2940   48.1010   18.6060 C   0  0  0  0  0  0  0  0  0  0  0  0
   45.3280   47.6010   19.4860 F   0  0  0  0  0  0  0  0  0  0  0  0
   47.2740   48.7860   19.3310 F   0  0  0  0  0  0  0  0  0  0  0  0
   46.8850   47.0400   17.9120 F   0  0  0  0  0  0  0  0  0  0  0  0
   50.9070   51.0740   18.2330 C   0  0  2  0  0  0  0  0  0  0  0  0
   51.9860   50.7470   17.2900 N   0  0  0  0  0  0  0  0  0  0  0  0
   52.0280   51.4550   16.5720 H   0  0  0  0  0  0  0  0  0  0  0  0
   51.8010   49.8500   16.8680 H   0  0  0  0  0  0  0  0  0  0  0  0
   52.8640   50.7130   17.7830 H   0  0  0  0  0  0  0  0  0  0  0  0
   50.9030   50.0570   19.3760 C   0  0  0  0  0  0  0  0  0  0  0  0
   52.3050   49.8890   19.9040 C   0  0  0  0  0  0  0  0  0  0  0  0
   52.8440   48.6580   20.0040 N   0  0  0  0  0  0  0  0  0  0  0  0
   53.7460   48.5500   20.3440 H   0  0  0  0  0  0  0  0  0  0  0  0
   52.3300   47.8800   19.7360 H   0  0  0  0  0  0  0  0  0  0  0  0
   52.9470   50.8620   20.2390 O   0  0  0  0  0  0  0  0  0  0  0  0
  1  2  2  0  0  0  0
  1  5  1  0  0  0  0
  2  3  1  0  0  0  0
  3  4  2  0  0  0  0
  4 17  1  0  0  0  0
  5  4  1  0  0  0  0
  6 11  2  0  0  0  0
  6  7  1  0  0  0  0
  7  8  2  0  0  0  0
  8  9  1  0  0  0  0
  9 12  1  0  0  0  0
 10  9  2  0  0  0  0
 10  1  1  0  0  0  0
 11 10  1  0  0  0  0
 12 13  1  0  0  0  0
 13 15  1  0  0  0  0
 13 14  1  0  0  0  0
 16 13  1  0  0  0  0
 17 18  1  6  0  0  0
 17 22  1  0  0  0  0
 18 21  1  0  0  0  0
 19 18  1  0  0  0  0
 20 18  1  0  0  0  0
 22 23  1  0  0  0  0
 23 24  1  0  0  0  0
 23 27  2  0  0  0  0
 24 25  1  0  0  0  0
 26 24  1  0  0  0  0
M  END
>  <MODEL>
2

>  <REMARK>
  Name = ZINC44251906
                            x       y       z     vdW  Elec       q    Type
                         _______ _______ _______ _____ _____    ______ ____

>  <TORSDO>
F 7

>  <minimizedAffinity>
-8.2945375299413957

$$$$
ZINC44251906
 OpenBabel10211212473D

 27 28  0  0  1  0  0  0  0  0999 V2000
   49.2980   54.5550   19.2670 C   0  0  0  0  0  0  0  0  0  0  0  0
   48.5520   54.0850   18.2310 C   0  0  0  0  0  0  0  0  0  0  0  0
   49.1740   52.9000   17.7880 C   0  0  0  0  0  0  0  0  0  0  0  0
   50.2560   52.7070   18.5660 C   0  0  0  0  0  0  0  0  0  0  0  0
   50.3300   53.7110   19.4560 O   0  0  0  0  0  0  0  0  0  0  0  0
   47.5830   57.6220   20.5890 C   0  0  0  0  0  0  0  0  0  0  0  0
   48.5140   58.0820   21.5050 C   0  0  0  0  0  0  0  0  0  0  0  0
   49.7000   57.3980   21.6980 C   0  0  0  0  0  0  0  0  0  0  0  0
   49.9640   56.2480   20.9730 C   0  0  0  0  0  0  0  0  0  0  0  0
   49.0250   55.7800   20.0460 C   0  0  0  0  0  0  0  0  0  0  0  0
   47.8320   56.4790   19.8590 C   0  0  0  0  0  0  0  0  0  0  0  0
   51.1300   55.5760   21.1620 O   0  0  0  0  0  0  0  0  0  0  0  0
   52.3220   56.1980   20.6800 C   0  0  0  0  0  0  0  0  0  0  0  0
   51.9870   57.2150   19.7790 F   0  0  0  0  0  0  0  0  0  0  0  0
   53.1170   55.2470   20.0340 F   0  0  0  0  0  0  0  0  0  0  0  0
   53.0310   56.7440   21.7560 F   0  0  0  0  0  0  0  0  0  0  0  0
   51.2250   51.5590   18.4550 C   0  0  2  0  0  0  0  0  0  0  0  0
   51.0440   50.8880   17.1600 N   0  0  0  0  0  0  0  0  0  0  0  0
   51.7950   51.1500   16.5380 H   0  0  0  0  0  0  0  0  0  0  0  0
   50.1620   51.1670   16.7570 H   0  0  0  0  0  0  0  0  0  0  0  0
   51.0500   49.8890   17.2940 H   0  0  0  0  0  0  0  0  0  0  0  0
   50.9690   50.5620   19.5850 C   0  0  0  0  0  0  0  0  0  0  0  0
   52.2850   50.0560   20.1190 C   0  0  0  0  0  0  0  0  0  0  0  0
   52.6270   48.7640   19.9530 N   0  0  0  0  0  0  0  0  0  0  0  0
   53.4740   48.4390   20.2960 H   0  0  0  0  0  0  0  0  0  0  0  0
   52.0270   48.1580   19.4900 H   0  0  0  0  0  0  0  0  0  0  0  0
   53.0350   50.8130   20.6970 O   0  0  0  0  0  0  0  0  0  0  0  0
  1  5  1  0  0  0  0
  1 10  1  0  0  0  0
  2  1  2  0  0  0  0
  3  2  1  0  0  0  0
  3  4  2  0  0  0  0
  4  5  1  0  0  0  0
  6  7  2  0  0  0  0
  7  8  1  0  0  0  0
  9 12  1  0  0  0  0
  9  8  2  0  0  0  0
 10  9  1  0  0  0  0
 11 10  2  0  0  0  0
 11  6  1  0  0  0  0
 13 12  1  0  0  0  0
 13 16  1  0  0  0  0
 14 13  1  0  0  0  0
 15 13  1  0  0  0  0
 17 18  1  6  0  0  0
 17  4  1  0  0  0  0
 17 22  1  0  0  0  0
 18 21  1  0  0  0  0
 19 18  1  0  0  0  0
 20 18  1  0  0  0  0
 22 23  1  0  0  0  0
 23 27  2  0  0  0  0
 24 23  1  0  0  0  0
 24 25  1  0  0  0  0
 26 24  1  0  0  0  0
M  END
>  <MODEL>
3

>  <REMARK>
  Name = ZINC44251906
                            x       y       z     vdW  Elec       q    Type
                         _______ _______ _______ _____ _____    ______ ____

>  <TORSDO>
F 7

>  <minimizedAffinity>
-8.0972540070298855

$$$$
ZINC44251906
 OpenBabel10211212473D

 27 28  0  0  1  0  0  0  0  0999 V2000
   48.7360   49.5410   18.5510 C   0  0  0  0  0  0  0  0  0  0  0  0
   49.6830   48.7800   19.1620 C   0  0  0  0  0  0  0  0  0  0  0  0
   50.7620   49.6370   19.4620 C   0  0  0  0  0  0  0  0  0  0  0  0
   50.4240   50.8650   19.0240 C   0  0  0  0  0  0  0  0  0  0  0  0
   49.2010   50.8020   18.4700 O   0  0  0  0  0  0  0  0  0  0  0  0
   45.3870   47.8490   18.4120 C   0  0  0  0  0  0  0  0  0  0  0  0
   44.9720   48.1710   17.1310 C   0  0  0  0  0  0  0  0  0  0  0  0
   45.7770   48.9380   16.3080 C   0  0  0  0  0  0  0  0  0  0  0  0
   47.0040   49.3880   16.7630 C   0  0  0  0  0  0  0  0  0  0  0  0
   47.4270   49.0660   18.0570 C   0  0  0  0  0  0  0  0  0  0  0  0
   46.6070   48.2910   18.8790 C   0  0  0  0  0  0  0  0  0  0  0  0
   47.7960   50.1420   15.9540 O   0  0  0  0  0  0  0  0  0  0  0  0
   48.4760   49.4620   14.8970 C   0  0  0  0  0  0  0  0  0  0  0  0
   47.6760   49.4640   13.7500 F   0  0  0  0  0  0  0  0  0  0  0  0
   48.7350   48.1430   15.2820 F   0  0  0  0  0  0  0  0  0  0  0  0
   49.6830   50.1140   14.6240 F   0  0  0  0  0  0  0  0  0  0  0  0
   51.2770   52.1020   19.1320 C   0  0  2  0  0  0  0  0  0  0  0  0
   52.0710   52.2590   17.9050 N   0  0  0  0  0  0  0  0  0  0  0  0
   53.0430   52.3850   18.1490 H   0  0  0  0  0  0  0  0  0  0  0  0
   51.7460   53.0670   17.3960 H   0  0  0  0  0  0  0  0  0  0  0  0
   51.9710   51.4360   17.3310 H   0  0  0  0  0  0  0  0  0  0  0  0
   52.2140   51.9730   20.3330 C   0  0  0  0  0  0  0  0  0  0  0  0
   51.6970   52.8180   21.4690 C   0  0  0  0  0  0  0  0  0  0  0  0
   50.8140   52.3000   22.3460 N   0  0  0  0  0  0  0  0  0  0  0  0
   50.4820   52.8450   23.0770 H   0  0  0  0  0  0  0  0  0  0  0  0
   50.5110   51.3840   22.2460 H   0  0  0  0  0  0  0  0  0  0  0  0
   52.0760   53.9630   21.5940 O   0  0  0  0  0  0  0  0  0  0  0  0
  1  2  2  0  0  0  0
  2  3  1  0  0  0  0
  4 17  1  0  0  0  0
  4  3  2  0  0  0  0
  5  1  1  0  0  0  0
  5  4  1  0  0  0  0
  6 11  1  0  0  0  0
  7  6  2  0  0  0  0
  8  9  2  0  0  0  0
  8  7  1  0  0  0  0
  9 10  1  0  0  0  0
 10  1  1  0  0  0  0
 10 11  2  0  0  0  0
 12  9  1  0  0  0  0
 13 15  1  0  0  0  0
 13 12  1  0  0  0  0
 14 13  1  0  0  0  0
 16 13  1  0  0  0  0
 17 18  1  6  0  0  0
 17 22  1  0  0  0  0
 18 19  1  0  0  0  0
 20 18  1  0  0  0  0
 21 18  1  0  0  0  0
 22 23  1  0  0  0  0
 23 27  2  0  0  0  0
 23 24  1  0  0  0  0
 24 25  1  0  0  0  0
 26 24  1  0  0  0  0
M  END
>  <MODEL>
4

>  <REMARK>
  Name = ZINC44251906
                            x       y       z     vdW  Elec       q    Type
                         _______ _______ _______ _____ _____    ______ ____

>  <TORSDO>
F 7

>  <minimizedAffinity>
-7.7847841283417045

$$$$
ZINC44251906
 OpenBabel10211212473D

 27 28  0  0  1  0  0  0  0  0999 V2000
   47.9360   51.5690   17.1050 C   0  0  0  0  0  0  0  0  0  0  0  0
   47.6480   52.8550   16.7700 C   0  0  0  0  0  0  0  0  0  0  0  0
   48.6020   53.6670   17.4160 C   0  0  0  0  0  0  0  0  0  0  0  0
   49.4160   52.8460   18.1060 C   0  0  0  0  0  0  0  0  0  0  0  0
   49.0080   51.5790   17.9200 O   0  0  0  0  0  0  0  0  0  0  0  0
   45.4440   48.7620   16.9890 C   0  0  0  0  0  0  0  0  0  0  0  0
   45.8130   48.1190   15.8200 C   0  0  0  0  0  0  0  0  0  0  0  0
   46.8700   48.5930   15.0650 C   0  0  0  0  0  0  0  0  0  0  0  0
   47.5670   49.7160   15.4760 C   0  0  0  0  0  0  0  0  0  0  0  0
   47.1980   50.3700   16.6580 C   0  0  0  0  0  0  0  0  0  0  0  0
   46.1290   49.8820   17.4110 C   0  0  0  0  0  0  0  0  0  0  0  0
   48.6070   50.1820   14.7350 O   0  0  0  0  0  0  0  0  0  0  0  0
   49.8580   49.5060   14.8760 C   0  0  0  0  0  0  0  0  0  0  0  0
   49.6360   48.2060   15.3430 F   0  0  0  0  0  0  0  0  0  0  0  0
   50.6620   50.1970   15.7880 F   0  0  0  0  0  0  0  0  0  0  0  0
   50.5010   49.4510   13.6350 F   0  0  0  0  0  0  0  0  0  0  0  0
   50.5860   53.2760   18.9520 C   0  0  2  0  0  0  0  0  0  0  0  0
   51.8260   52.7140   18.3970 N   0  0  0  0  0  0  0  0  0  0  0  0
   52.1720   51.9930   19.0130 H   0  0  0  0  0  0  0  0  0  0  0  0
   52.5170   53.4440   18.3130 H   0  0  0  0  0  0  0  0  0  0  0  0
   51.6400   52.3210   17.4880 H   0  0  0  0  0  0  0  0  0  0  0  0
   50.3940   52.7730   20.3830 C   0  0  0  0  0  0  0  0  0  0  0  0
   51.6330   53.0670   21.1910 C   0  0  0  0  0  0  0  0  0  0  0  0
   52.0800   52.1700   22.0910 N   0  0  0  0  0  0  0  0  0  0  0  0
   52.8760   52.3600   22.6100 H   0  0  0  0  0  0  0  0  0  0  0  0
   51.6040   51.3340   22.2210 H   0  0  0  0  0  0  0  0  0  0  0  0
   52.2280   54.1120   21.0290 O   0  0  0  0  0  0  0  0  0  0  0  0
  1  5  1  0  0  0  0
  2  1  2  0  0  0  0
  2  3  1  0  0  0  0
  3  4  2  0  0  0  0
  5  4  1  0  0  0  0
  6 11  1  0  0  0  0
  7  6  2  0  0  0  0
  8  9  2  0  0  0  0
  8  7  1  0  0  0  0
  9 10  1  0  0  0  0
 10  1  1  0  0  0  0
 10 11  2  0  0  0  0
 12 13  1  0  0  0  0
 12  9  1  0  0  0  0
 13 14  1  0  0  0  0
 13 15  1  0  0  0  0
 16 13  1  0  0  0  0
 17  4  1  6  0  0  0
 17 22  1  0  0  0  0
 18 17  1  0  0  0  0
 18 19  1  0  0  0  0
 20 18  1  0  0  0  0
 21 18  1  0  0  0  0
 22 23  1  0  0  0  0
 23 24  1  0  0  0  0
 24 26  1  0  0  0  0
 24 25  1  0  0  0  0
 27 23  2  0  0  0  0
M  END
>  <MODEL>
5

>  <REMARK>
  Name = ZINC44251906
                            x       y       z     vdW  Elec       q    Type
                         _______ _______ _______ _____ _____    ______ ____

>  <TORSDO>
F 7

>  <minimizedAffinity>
-7.7226733697589154

$$$$
ZINC44251906
 OpenBabel10211212473D

 27 28  0  0  1  0  0  0  0  0999 V2000
   49.3480   49.4540   18.9490 C   0  0  0  0  0  0  0  0  0  0  0  0
   50.0270   48.4730   19.6020 C   0  0  0  0  0  0  0  0  0  0  0  0
   51.1460   49.0860   20.2040 C   0  0  0  0  0  0  0  0  0  0  0  0
   51.0940   50.3950   19.8910 C   0  0  0  0  0  0  0  0  0  0  0  0
   50.0090   50.6120   19.1290 O   0  0  0  0  0  0  0  0  0  0  0  0
   45.8320   48.5110   18.0280 C   0  0  0  0  0  0  0  0  0  0  0  0
   45.7700   48.9410   16.7140 C   0  0  0  0  0  0  0  0  0  0  0  0
   46.8670   49.5390   16.1220 C   0  0  0  0  0  0  0  0  0  0  0  0
   48.0370   49.7100   16.8420 C   0  0  0  0  0  0  0  0  0  0  0  0
   48.1040   49.2760   18.1720 C   0  0  0  0  0  0  0  0  0  0  0  0
   46.9900   48.6740   18.7590 C   0  0  0  0  0  0  0  0  0  0  0  0
   49.1170   50.2970   16.2610 O   0  0  0  0  0  0  0  0  0  0  0  0
   49.7250   49.6000   15.1730 C   0  0  0  0  0  0  0  0  0  0  0  0
   51.0790   49.9460   15.0950 F   0  0  0  0  0  0  0  0  0  0  0  0
   49.0860   49.9500   13.9790 F   0  0  0  0  0  0  0  0  0  0  0  0
   49.6080   48.2210   15.3770 F   0  0  0  0  0  0  0  0  0  0  0  0
   52.0910   51.4400   20.3200 C   0  0  2  0  0  0  0  0  0  0  0  0
   52.5610   51.1410   21.6800 N   0  0  0  0  0  0  0  0  0  0  0  0
   52.2680   50.2110   21.9400 H   0  0  0  0  0  0  0  0  0  0  0  0
   52.1670   51.8100   22.3260 H   0  0  0  0  0  0  0  0  0  0  0  0
   53.5670   51.1980   21.7090 H   0  0  0  0  0  0  0  0  0  0  0  0
   51.4260   52.8170   20.3020 C   0  0  0  0  0  0  0  0  0  0  0  0
   52.1930   53.7350   19.3850 C   0  0  0  0  0  0  0  0  0  0  0  0
   52.3950   55.0210   19.7330 N   0  0  0  0  0  0  0  0  0  0  0  0
   52.8890   55.6110   19.1430 H   0  0  0  0  0  0  0  0  0  0  0  0
   52.0460   55.3570   20.5740 H   0  0  0  0  0  0  0  0  0  0  0  0
   52.6290   53.3160   18.3340 O   0  0  0  0  0  0  0  0  0  0  0  0
  1  5  1  0  0  0  0
  1  2  2  0  0  0  0
  2  3  1  0  0  0  0
  4  3  2  0  0  0  0
  5  4  1  0  0  0  0
  6 11  2  0  0  0  0
  7  6  1  0  0  0  0
  8  7  2  0  0  0  0
  8  9  1  0  0  0  0
  9 10  2  0  0  0  0
 10 11  1  0  0  0  0
 10  1  1  0  0  0  0
 12  9  1  0  0  0  0
 13 16  1  0  0  0  0
 13 12  1  0  0  0  0
 14 13  1  0  0  0  0
 15 13  1  0  0  0  0
 17  4  1  1  0  0  0
 17 18  1  0  0  0  0
 18 21  1  0  0  0  0
 18 19  1  0  0  0  0
 18 20  1  0  0  0  0
 22 17  1  0  0  0  0
 23 24  1  0  0  0  0
 23 22  1  0  0  0  0
 24 26  1  0  0  0  0
 25 24  1  0  0  0  0
 27 23  2  0  0  0  0
M  END
>  <MODEL>
6

>  <REMARK>
  Name = ZINC44251906
                            x       y       z     vdW  Elec       q    Type
                         _______ _______ _______ _____ _____    ______ ____

>  <TORSDO>
F 7

>  <minimizedAffinity>
-7.6120291531759667

$$$$
ZINC44251906
 OpenBabel10211212473D

 27 28  0  0  1  0  0  0  0  0999 V2000
   48.1100   49.2270   17.9910 C   0  0  0  0  0  0  0  0  0  0  0  0
   48.6140   48.5570   19.0630 C   0  0  0  0  0  0  0  0  0  0  0  0
   49.7060   49.3130   19.5370 C   0  0  0  0  0  0  0  0  0  0  0  0
   49.8130   50.3930   18.7410 C   0  0  0  0  0  0  0  0  0  0  0  0
   48.8510   50.3360   17.8050 O   0  0  0  0  0  0  0  0  0  0  0  0
   44.6210   48.2720   16.9840 C   0  0  0  0  0  0  0  0  0  0  0  0
   44.7880   48.0160   15.6340 C   0  0  0  0  0  0  0  0  0  0  0  0
   46.0320   48.1520   15.0450 C   0  0  0  0  0  0  0  0  0  0  0  0
   47.1200   48.5460   15.8060 C   0  0  0  0  0  0  0  0  0  0  0  0
   46.9560   48.8060   17.1710 C   0  0  0  0  0  0  0  0  0  0  0  0
   45.6960   48.6650   17.7540 C   0  0  0  0  0  0  0  0  0  0  0  0
   48.3430   48.6790   15.2280 O   0  0  0  0  0  0  0  0  0  0  0  0
   48.5290   49.7920   14.3520 C   0  0  0  0  0  0  0  0  0  0  0  0
   49.8770   49.8800   13.9870 F   0  0  0  0  0  0  0  0  0  0  0  0
   48.1460   50.9680   15.0040 F   0  0  0  0  0  0  0  0  0  0  0  0
   47.7470   49.6190   13.2050 F   0  0  0  0  0  0  0  0  0  0  0  0
   50.8450   51.4830   18.8730 C   0  0  2  0  0  0  0  0  0  0  0  0
   50.5480   52.5590   17.9170 N   0  0  0  0  0  0  0  0  0  0  0  0
   51.0080   52.3650   17.0400 H   0  0  0  0  0  0  0  0  0  0  0  0
   50.8840   53.4370   18.2850 H   0  0  0  0  0  0  0  0  0  0  0  0
   49.5520   52.6150   17.7710 H   0  0  0  0  0  0  0  0  0  0  0  0
   52.2330   50.9110   18.5810 C   0  0  0  0  0  0  0  0  0  0  0  0
   52.7810   50.2610   19.8260 C   0  0  0  0  0  0  0  0  0  0  0  0
   53.1260   48.9580   19.8100 N   0  0  0  0  0  0  0  0  0  0  0  0
   53.4790   48.5400   20.6110 H   0  0  0  0  0  0  0  0  0  0  0  0
   53.0210   48.4380   18.9970 H   0  0  0  0  0  0  0  0  0  0  0  0
   52.9120   50.9100   20.8420 O   0  0  0  0  0  0  0  0  0  0  0  0
  1  2  2  0  0  0  0
  2  3  1  0  0  0  0
  4 17  1  0  0  0  0
  4  3  2  0  0  0  0
  5  1  1  0  0  0  0
  5  4  1  0  0  0  0
  6 11  2  0  0  0  0
  7  6  1  0  0  0  0
  8  7  2  0  0  0  0
  8  9  1  0  0  0  0
  9 10  2  0  0  0  0
 10 11  1  0  0  0  0
 10  1  1  0  0  0  0
 12  9  1  0  0  0  0
 13 15  1  0  0  0  0
 13 12  1  0  0  0  0
 14 13  1  0  0  0  0
 16 13  1  0  0  0  0
 17 18  1  6  0  0  0
 18 20  1  0  0  0  0
 19 18  1  0  0  0  0
 21 18  1  0  0  0  0
 22 17  1  0  0  0  0
 22 23  1  0  0  0  0
 23 27  2  0  0  0  0
 24 23  1  0  0  0  0
 24 25  1  0  0  0  0
 26 24  1  0  0  0  0
M  END
>  <MODEL>
7

>  <REMARK>
  Name = ZINC44251906
                            x       y       z     vdW  Elec       q    Type
                         _______ _______ _______ _____ _____    ______ ____

>  <TORSDO>
F 7

>  <minimizedAffinity>
-7.589513750774028

$$$$
ZINC44251906
 OpenBabel10211212473D

 27 28  0  0  1  0  0  0  0  0999 V2000
   49.6320   54.4320   19.3250 C   0  0  0  0  0  0  0  0  0  0  0  0
   48.7890   55.3100   19.9320 C   0  0  0  0  0  0  0  0  0  0  0  0
   49.5730   56.0830   20.8140 C   0  0  0  0  0  0  0  0  0  0  0  0
   50.8400   55.6420   20.7030 C   0  0  0  0  0  0  0  0  0  0  0  0
   50.8720   54.6420   19.8070 O   0  0  0  0  0  0  0  0  0  0  0  0
   48.0290   52.8060   16.3450 C   0  0  0  0  0  0  0  0  0  0  0  0
   48.5370   51.5210   16.4300 C   0  0  0  0  0  0  0  0  0  0  0  0
   49.4010   51.1770   17.4530 C   0  0  0  0  0  0  0  0  0  0  0  0
   49.7630   52.1190   18.4010 C   0  0  0  0  0  0  0  0  0  0  0  0
   49.2520   53.4200   18.3190 C   0  0  0  0  0  0  0  0  0  0  0  0
   48.3810   53.7550   17.2810 C   0  0  0  0  0  0  0  0  0  0  0  0
   50.6110   51.7820   19.4080 O   0  0  0  0  0  0  0  0  0  0  0  0
   51.9830   51.5900   19.0630 C   0  0  0  0  0  0  0  0  0  0  0  0
   52.3260   52.4490   18.0130 F   0  0  0  0  0  0  0  0  0  0  0  0
   52.1830   50.2650   18.6640 F   0  0  0  0  0  0  0  0  0  0  0  0
   52.7880   51.8690   20.1730 F   0  0  0  0  0  0  0  0  0  0  0  0
   52.0260   56.1790   21.4630 C   0  0  2  0  0  0  0  0  0  0  0  0
   51.6590   56.3690   22.8740 N   0  0  0  0  0  0  0  0  0  0  0  0
   50.6650   56.5270   22.9440 H   0  0  0  0  0  0  0  0  0  0  0  0
   52.1530   57.1670   23.2440 H   0  0  0  0  0  0  0  0  0  0  0  0
   51.9080   55.5460   23.4010 H   0  0  0  0  0  0  0  0  0  0  0  0
   52.4540   57.5180   20.8630 C   0  0  0  0  0  0  0  0  0  0  0  0
   53.3230   58.2570   21.8490 C   0  0  0  0  0  0  0  0  0  0  0  0
   52.9010   59.4210   22.3790 N   0  0  0  0  0  0  0  0  0  0  0  0
   53.4610   59.8960   23.0130 H   0  0  0  0  0  0  0  0  0  0  0  0
   52.0380   59.7850   22.1270 H   0  0  0  0  0  0  0  0  0  0  0  0
   54.4020   57.8020   22.1640 O   0  0  0  0  0  0  0  0  0  0  0  0
  1  5  1  0  0  0  0
  1  2  2  0  0  0  0
  2  3  1  0  0  0  0
  4  3  2  0  0  0  0
  5  4  1  0  0  0  0
  6  7  2  0  0  0  0
  6 11  1  0  0  0  0
  7  8  1  0  0  0  0
  8  9  2  0  0  0  0
  9 12  1  0  0  0  0
 10  9  1  0  0  0  0
 10  1  1  0  0  0  0
 11 10  2  0  0  0  0
 13 12  1  0  0  0  0
 13 16  1  0  0  0  0
 14 13  1  0  0  0  0
 15 13  1  0  0  0  0
 17  4  1  1  0  0  0
 17 18  1  0  0  0  0
 18 19  1  0  0  0  0
 18 20  1  0  0  0  0
 18 21  1  0  0  0  0
 22 17  1  0  0  0  0
 22 23  1  0  0  0  0
 23 27  2  0  0  0  0
 23 24  1  0  0  0  0
 24 25  1  0  0  0  0
 26 24  1  0  0  0  0
M  END
>  <MODEL>
8

>  <REMARK>
  Name = ZINC44251906
                            x       y       z     vdW  Elec       q    Type
                         _______ _______ _______ _____ _____    ______ ____

>  <TORSDO>
F 7

>  <minimizedAffinity>
-7.5543147018067316

$$$$
ZINC44251906
 OpenBabel10211212473D

 27 28  0  0  1  0  0  0  0  0999 V2000
   49.1390   54.6800   19.2530 C   0  0  0  0  0  0  0  0  0  0  0  0
   48.5570   54.5010   18.0370 C   0  0  0  0  0  0  0  0  0  0  0  0
   48.9510   53.2260   17.5820 C   0  0  0  0  0  0  0  0  0  0  0  0
   49.7450   52.6960   18.5310 C   0  0  0  0  0  0  0  0  0  0  0  0
   49.8610   53.5790   19.5370 O   0  0  0  0  0  0  0  0  0  0  0  0
   47.7450   57.7850   20.8370 C   0  0  0  0  0  0  0  0  0  0  0  0
   48.7610   58.1240   21.7140 C   0  0  0  0  0  0  0  0  0  0  0  0
   49.9020   57.3470   21.7950 C   0  0  0  0  0  0  0  0  0  0  0  0
   50.0340   56.2230   20.9970 C   0  0  0  0  0  0  0  0  0  0  0  0
   49.0080   55.8770   20.1090 C   0  0  0  0  0  0  0  0  0  0  0  0
   47.8620   56.6690   20.0360 C   0  0  0  0  0  0  0  0  0  0  0  0
   51.1560   55.4590   21.0740 O   0  0  0  0  0  0  0  0  0  0  0  0
   52.2720   55.8640   20.2820 C   0  0  0  0  0  0  0  0  0  0  0  0
   51.8290   56.6710   19.2280 F   0  0  0  0  0  0  0  0  0  0  0  0
   52.9130   54.7340   19.7660 F   0  0  0  0  0  0  0  0  0  0  0  0
   53.1700   56.5870   21.0760 F   0  0  0  0  0  0  0  0  0  0  0  0
   50.4000   51.3400   18.4730 C   0  0  2  0  0  0  0  0  0  0  0  0
   51.7120   51.4560   17.8200 N   0  0  0  0  0  0  0  0  0  0  0  0
   51.6340   52.0620   17.0170 H   0  0  0  0  0  0  0  0  0  0  0  0
   52.0210   50.5430   17.5240 H   0  0  0  0  0  0  0  0  0  0  0  0
   52.3790   51.8420   18.4710 H   0  0  0  0  0  0  0  0  0  0  0  0
   49.5170   50.3800   17.6750 C   0  0  0  0  0  0  0  0  0  0  0  0
   49.3520   49.0930   18.4410 C   0  0  0  0  0  0  0  0  0  0  0  0
   48.9990   47.9640   17.7950 N   0  0  0  0  0  0  0  0  0  0  0  0
   48.8930   47.1360   18.2880 H   0  0  0  0  0  0  0  0  0  0  0  0
   48.8510   47.9800   16.8360 H   0  0  0  0  0  0  0  0  0  0  0  0
   49.5370   49.0730   19.6400 O   0  0  0  0  0  0  0  0  0  0  0  0
  1  5  1  0  0  0  0
  1 10  1  0  0  0  0
  2  1  2  0  0  0  0
  3  2  1  0  0  0  0
  3  4  2  0  0  0  0
  4  5  1  0  0  0  0
  6  7  2  0  0  0  0
  7  8  1  0  0  0  0
  9 12  1  0  0  0  0
  9  8  2  0  0  0  0
 10  9  1  0  0  0  0
 11 10  2  0  0  0  0
 11  6  1  0  0  0  0
 13 12  1  0  0  0  0
 13 16  1  0  0  0  0
 14 13  1  0  0  0  0
 15 13  1  0  0  0  0
 17 22  1  6  0  0  0
 17  4  1  0  0  0  0
 18 21  1  0  0  0  0
 18 17  1  0  0  0  0
 19 18  1  0  0  0  0
 20 18  1  0  0  0  0
 22 23  1  0  0  0  0
 23 27  2  0  0  0  0
 24 25  1  0  0  0  0
 24 23  1  0  0  0  0
 26 24  1  0  0  0  0
M  END
>  <MODEL>
9

>  <REMARK>
  Name = ZINC44251906
                            x       y       z     vdW  Elec       q    Type
                         _______ _______ _______ _____ _____    ______ ____

>  <TORSDO>
F 7

>  <minimizedAffinity>
-7.4720028047580822

$$$$
ZINC05993525
 OpenBabel10211212473D

 19 19  0  0  0  0  0  0  0  0999 V2000
   51.5940   54.5870   21.1610 C   0  0  0  0  0  0  0  0  0  0  0  0
   51.8230   54.8130   22.4330 N   0  0  0  0  0  0  0  0  0  0  0  0
   52.3920   55.9570   22.5780 N   0  0  0  0  0  0  0  0  0  0  0  0
   52.5480   56.5280   21.4180 C   0  0  0  0  0  0  0  0  0  0  0  0
   52.0490   55.6750   20.4730 N   0  0  0  0  0  0  0  0  0  0  0  0
   53.1700   57.8770   21.1630 C   0  0  0  0  0  0  0  0  0  0  0  0
   52.2300   58.7190   20.5580 F   0  0  0  0  0  0  0  0  0  0  0  0
   53.5840   58.4360   22.3770 F   0  0  0  0  0  0  0  0  0  0  0  0
   54.2750   57.7290   20.3180 F   0  0  0  0  0  0  0  0  0  0  0  0
   52.0130   55.8710   19.1210 N   0  0  0  0  0  0  0  0  0  0  0  0
   51.7630   56.8230   18.9010 H   0  0  0  0  0  0  0  0  0  0  0  0
   51.3820   55.2210   18.6780 H   0  0  0  0  0  0  0  0  0  0  0  0
   50.8400   53.1510   20.4710 S   0  0  0  0  0  0  0  0  0  0  0  0
   52.2940   52.3460   19.7570 C   0  0  0  0  0  0  0  0  0  0  0  0
   52.5510   51.0450   20.4730 C   0  0  0  0  0  0  0  0  0  0  0  0
   52.5000   50.9950   21.8190 N   0  0  0  0  0  0  0  0  0  0  0  0
   52.6650   50.1570   22.2800 H   0  0  0  0  0  0  0  0  0  0  0  0
   52.3000   51.7960   22.3260 H   0  0  0  0  0  0  0  0  0  0  0  0
   52.8010   50.0430   19.8380 O   0  0  0  0  0  0  0  0  0  0  0  0
  1  2  2  0  0  0  0
  2  3  1  0  0  0  0
  4  3  2  0  0  0  0
  5  1  1  0  0  0  0
  5  4  1  0  0  0  0
  6  4  1  0  0  0  0
  6  8  1  0  0  0  0
  7  6  1  0  0  0  0
  9  6  1  0  0  0  0
 10  5  1  0  0  0  0
 11 10  1  0  0  0  0
 12 10  1  0  0  0  0
 13  1  1  0  0  0  0
 14 13  1  0  0  0  0
 14 15  1  0  0  0  0
 15 16  1  0  0  0  0
 16 17  1  0  0  0  0
 16 18  1  0  0  0  0
 19 15  2  0  0  0  0
M  END
>  <MODEL>
1

>  <REMARK>
  Name = ZINC05993525
                            x       y       z     vdW  Elec       q    Type
                         _______ _______ _______ _____ _____    ______ ____

>  <TORSDO>
F 5

>  <minimizedAffinity>
-6.1930145502681411

$$$$
ZINC05993525
 OpenBabel10211212473D

 19 19  0  0  0  0  0  0  0  0999 V2000
   50.0510   50.8220   17.7910 C   0  0  0  0  0  0  0  0  0  0  0  0
   49.1060   51.5660   17.2680 N   0  0  0  0  0  0  0  0  0  0  0  0
   47.9770   50.9560   17.3440 N   0  0  0  0  0  0  0  0  0  0  0  0
   48.1320   49.8000   17.9240 C   0  0  0  0  0  0  0  0  0  0  0  0
   49.4600   49.6710   18.2260 N   0  0  0  0  0  0  0  0  0  0  0  0
   47.0510   48.7880   18.2030 C   0  0  0  0  0  0  0  0  0  0  0  0
   47.1150   48.3940   19.5440 F   0  0  0  0  0  0  0  0  0  0  0  0
   45.8000   49.3600   17.9450 F   0  0  0  0  0  0  0  0  0  0  0  0
   47.2320   47.6720   17.3800 F   0  0  0  0  0  0  0  0  0  0  0  0
   50.0670   48.6100   18.8370 N   0  0  0  0  0  0  0  0  0  0  0  0
   50.3660   47.9260   18.1600 H   0  0  0  0  0  0  0  0  0  0  0  0
   49.4610   48.1950   19.5280 H   0  0  0  0  0  0  0  0  0  0  0  0
   51.7620   51.2300   17.9100 S   0  0  0  0  0  0  0  0  0  0  0  0
   51.8210   51.8430   19.6110 C   0  0  0  0  0  0  0  0  0  0  0  0
   52.4110   50.7840   20.5070 C   0  0  0  0  0  0  0  0  0  0  0  0
   52.5390   51.0140   21.8280 N   0  0  0  0  0  0  0  0  0  0  0  0
   52.9200   50.3320   22.4050 H   0  0  0  0  0  0  0  0  0  0  0  0
   52.2530   51.8610   22.2030 H   0  0  0  0  0  0  0  0  0  0  0  0
   52.7700   49.7250   20.0370 O   0  0  0  0  0  0  0  0  0  0  0  0
  1 13  1  0  0  0  0
  1  5  1  0  0  0  0
  2  3  1  0  0  0  0
  2  1  2  0  0  0  0
  3  4  2  0  0  0  0
  4  6  1  0  0  0  0
  4  5  1  0  0  0  0
  5 10  1  0  0  0  0
  6  7  1  0  0  0  0
  8  6  1  0  0  0  0
  9  6  1  0  0  0  0
 10 12  1  0  0  0  0
 11 10  1  0  0  0  0
 13 14  1  0  0  0  0
 14 15  1  0  0  0  0
 15 16  1  0  0  0  0
 16 18  1  0  0  0  0
 16 17  1  0  0  0  0
 19 15  2  0  0  0  0
M  END
>  <MODEL>
2

>  <REMARK>
  Name = ZINC05993525
                            x       y       z     vdW  Elec       q    Type
                         _______ _______ _______ _____ _____    ______ ____

>  <TORSDO>
F 5

>  <minimizedAffinity>
-6.0889804728644075

$$$$
ZINC05993525
 OpenBabel10211212473D

 19 19  0  0  0  0  0  0  0  0999 V2000
   50.5390   51.0000   18.3440 C   0  0  0  0  0  0  0  0  0  0  0  0
   49.7000   51.8210   17.7570 N   0  0  0  0  0  0  0  0  0  0  0  0
   48.5560   51.2500   17.6180 N   0  0  0  0  0  0  0  0  0  0  0  0
   48.5940   50.0460   18.1150 C   0  0  0  0  0  0  0  0  0  0  0  0
   49.8600   49.8420   18.5910 N   0  0  0  0  0  0  0  0  0  0  0  0
   47.4560   49.0590   18.1500 C   0  0  0  0  0  0  0  0  0  0  0  0
   47.2890   48.5860   19.4560 F   0  0  0  0  0  0  0  0  0  0  0  0
   46.2800   49.6880   17.7270 F   0  0  0  0  0  0  0  0  0  0  0  0
   47.7430   47.9860   17.2990 F   0  0  0  0  0  0  0  0  0  0  0  0
   50.3430   48.7130   19.1900 N   0  0  0  0  0  0  0  0  0  0  0  0
   51.0140   48.9440   19.9070 H   0  0  0  0  0  0  0  0  0  0  0  0
   50.7430   48.0850   18.5090 H   0  0  0  0  0  0  0  0  0  0  0  0
   52.2240   51.3300   18.7400 S   0  0  0  0  0  0  0  0  0  0  0  0
   52.0070   52.6370   19.9720 C   0  0  0  0  0  0  0  0  0  0  0  0
   51.7740   52.0170   21.3260 C   0  0  0  0  0  0  0  0  0  0  0  0
   52.4950   50.9450   21.7090 N   0  0  0  0  0  0  0  0  0  0  0  0
   52.3440   50.5460   22.5810 H   0  0  0  0  0  0  0  0  0  0  0  0
   53.1630   50.5720   21.1140 H   0  0  0  0  0  0  0  0  0  0  0  0
   50.9380   52.4840   22.0700 O   0  0  0  0  0  0  0  0  0  0  0  0
  1  5  1  0  0  0  0
  1 13  1  0  0  0  0
  2  1  2  0  0  0  0
  3  2  1  0  0  0  0
  3  4  2  0  0  0  0
  4  6  1  0  0  0  0
  4  5  1  0  0  0  0
  5 10  1  0  0  0  0
  6  7  1  0  0  0  0
  8  6  1  0  0  0  0
  9  6  1  0  0  0  0
 10 11  1  0  0  0  0
 12 10  1  0  0  0  0
 13 14  1  0  0  0  0
 14 15  1  0  0  0  0
 15 16  1  0  0  0  0
 15 19  2  0  0  0  0
 16 17  1  0  0  0  0
 18 16  1  0  0  0  0
M  END
>  <MODEL>
3

>  <REMARK>
  Name = ZINC05993525
                            x       y       z     vdW  Elec       q    Type
                         _______ _______ _______ _____ _____    ______ ____

>  <TORSDO>
F 5

>  <minimizedAffinity>
-6.0010122096815159

$$$$
ZINC05993525
 OpenBabel10211212473D

 19 19  0  0  0  0  0  0  0  0999 V2000
   51.7450   54.1960   20.0770 C   0  0  0  0  0  0  0  0  0  0  0  0
   52.0730   54.3390   21.3400 N   0  0  0  0  0  0  0  0  0  0  0  0
   51.4100   55.3120   21.8560 N   0  0  0  0  0  0  0  0  0  0  0  0
   50.6180   55.8370   20.9640 C   0  0  0  0  0  0  0  0  0  0  0  0
   50.8060   55.1470   19.7980 N   0  0  0  0  0  0  0  0  0  0  0  0
   49.6760   56.9930   21.1760 C   0  0  0  0  0  0  0  0  0  0  0  0
   48.3620   56.5750   20.9400 F   0  0  0  0  0  0  0  0  0  0  0  0
   49.7910   57.4530   22.4930 F   0  0  0  0  0  0  0  0  0  0  0  0
   50.0010   58.0280   20.2910 F   0  0  0  0  0  0  0  0  0  0  0  0
   50.1830   55.3660   18.6010 N   0  0  0  0  0  0  0  0  0  0  0  0
   49.4100   56.0050   18.7080 H   0  0  0  0  0  0  0  0  0  0  0  0
   49.8790   54.4970   18.1880 H   0  0  0  0  0  0  0  0  0  0  0  0
   52.3930   53.0020   18.9550 S   0  0  0  0  0  0  0  0  0  0  0  0
   51.5670   51.5140   19.5690 C   0  0  0  0  0  0  0  0  0  0  0  0
   52.4890   50.7780   20.5080 C   0  0  0  0  0  0  0  0  0  0  0  0
   52.5270   51.1120   21.8130 N   0  0  0  0  0  0  0  0  0  0  0  0
   53.1210   50.6380   22.4170 H   0  0  0  0  0  0  0  0  0  0  0  0
   51.9620   51.8240   22.1480 H   0  0  0  0  0  0  0  0  0  0  0  0
   53.1950   49.8870   20.0880 O   0  0  0  0  0  0  0  0  0  0  0  0
  1  2  2  0  0  0  0
  2  3  1  0  0  0  0
  4  6  1  0  0  0  0
  4  3  2  0  0  0  0
  5  1  1  0  0  0  0
  5  4  1  0  0  0  0
  6  8  1  0  0  0  0
  7  6  1  0  0  0  0
  9  6  1  0  0  0  0
 10 11  1  0  0  0  0
 10  5  1  0  0  0  0
 12 10  1  0  0  0  0
 13 14  1  0  0  0  0
 13  1  1  0  0  0  0
 14 15  1  0  0  0  0
 15 16  1  0  0  0  0
 16 18  1  0  0  0  0
 16 17  1  0  0  0  0
 19 15  2  0  0  0  0
M  END
>  <MODEL>
4

>  <REMARK>
  Name = ZINC05993525
                            x       y       z     vdW  Elec       q    Type
                         _______ _______ _______ _____ _____    ______ ____

>  <TORSDO>
F 5

>  <minimizedAffinity>
-5.9782045746684398

$$$$
ZINC05993525
 OpenBabel10211212473D

 19 19  0  0  0  0  0  0  0  0999 V2000
   51.5260   53.5020   19.4130 C   0  0  0  0  0  0  0  0  0  0  0  0
   52.2230   54.4980   18.9180 N   0  0  0  0  0  0  0  0  0  0  0  0
   52.3690   55.4140   19.8090 N   0  0  0  0  0  0  0  0  0  0  0  0
   51.7890   55.0540   20.9180 C   0  0  0  0  0  0  0  0  0  0  0  0
   51.2270   53.8250   20.7050 N   0  0  0  0  0  0  0  0  0  0  0  0
   51.7380   55.8490   22.1980 C   0  0  0  0  0  0  0  0  0  0  0  0
   51.8800   54.9850   23.2900 F   0  0  0  0  0  0  0  0  0  0  0  0
   52.7770   56.7860   22.2060 F   0  0  0  0  0  0  0  0  0  0  0  0
   50.5100   56.5130   22.2860 F   0  0  0  0  0  0  0  0  0  0  0  0
   50.5160   53.0770   21.6000 N   0  0  0  0  0  0  0  0  0  0  0  0
   50.4830   53.5270   22.5020 H   0  0  0  0  0  0  0  0  0  0  0  0
   50.8960   52.1450   21.6750 H   0  0  0  0  0  0  0  0  0  0  0  0
   51.0650   52.0250   18.5690 S   0  0  0  0  0  0  0  0  0  0  0  0
   52.4970   50.9860   18.9470 C   0  0  0  0  0  0  0  0  0  0  0  0
   52.1240   49.9810   20.0070 C   0  0  0  0  0  0  0  0  0  0  0  0
   52.6740   48.7510   19.9920 N   0  0  0  0  0  0  0  0  0  0  0  0
   52.4320   48.1040   20.6740 H   0  0  0  0  0  0  0  0  0  0  0  0
   53.3080   48.5110   19.3000 H   0  0  0  0  0  0  0  0  0  0  0  0
   51.3300   50.2810   20.8730 O   0  0  0  0  0  0  0  0  0  0  0  0
  1  5  1  0  0  0  0
  2  1  2  0  0  0  0
  2  3  1  0  0  0  0
  3  4  2  0  0  0  0
  4  6  1  0  0  0  0
  5  4  1  0  0  0  0
  5 10  1  0  0  0  0
  6  8  1  0  0  0  0
  6  9  1  0  0  0  0
  6  7  1  0  0  0  0
 10 12  1  0  0  0  0
 10 11  1  0  0  0  0
 13 14  1  0  0  0  0
 13  1  1  0  0  0  0
 14 15  1  0  0  0  0
 15 19  2  0  0  0  0
 16 15  1  0  0  0  0
 16 17  1  0  0  0  0
 18 16  1  0  0  0  0
M  END
>  <MODEL>
5

>  <REMARK>
  Name = ZINC05993525
                            x       y       z     vdW  Elec       q    Type
                         _______ _______ _______ _____ _____    ______ ____

>  <TORSDO>
F 5

>  <minimizedAffinity>
-5.9622801930112326

$$$$
ZINC05993525
 OpenBabel10211212473D

 19 19  0  0  0  0  0  0  0  0999 V2000
   49.5700   50.6460   18.4420 C   0  0  0  0  0  0  0  0  0  0  0  0
   49.4800   49.5070   19.0880 N   0  0  0  0  0  0  0  0  0  0  0  0
   48.3920   48.9050   18.7610 N   0  0  0  0  0  0  0  0  0  0  0  0
   47.7350   49.6130   17.8860 C   0  0  0  0  0  0  0  0  0  0  0  0
   48.4600   50.7490   17.6550 N   0  0  0  0  0  0  0  0  0  0  0  0
   46.4170   49.2500   17.2530 C   0  0  0  0  0  0  0  0  0  0  0  0
   45.9950   48.0050   17.7330 F   0  0  0  0  0  0  0  0  0  0  0  0
   45.4620   50.2220   17.5730 F   0  0  0  0  0  0  0  0  0  0  0  0
   46.5680   49.1870   15.8630 F   0  0  0  0  0  0  0  0  0  0  0  0
   48.1390   51.7750   16.8100 N   0  0  0  0  0  0  0  0  0  0  0  0
   47.1910   51.6850   16.4780 H   0  0  0  0  0  0  0  0  0  0  0  0
   48.7890   51.8260   16.0410 H   0  0  0  0  0  0  0  0  0  0  0  0
   50.8790   51.8200   18.5670 S   0  0  0  0  0  0  0  0  0  0  0  0
   52.3050   50.7190   18.4020 C   0  0  0  0  0  0  0  0  0  0  0  0
   52.6610   50.1510   19.7520 C   0  0  0  0  0  0  0  0  0  0  0  0
   52.6300   48.8180   19.9510 N   0  0  0  0  0  0  0  0  0  0  0  0
   52.8580   48.4530   20.8210 H   0  0  0  0  0  0  0  0  0  0  0  0
   52.3790   48.2250   19.2270 H   0  0  0  0  0  0  0  0  0  0  0  0
   52.9740   50.8930   20.6580 O   0  0  0  0  0  0  0  0  0  0  0  0
  1 13  1  0  0  0  0
  1  2  2  0  0  0  0
  3  2  1  0  0  0  0
  4  3  2  0  0  0  0
  5  4  1  0  0  0  0
  5  1  1  0  0  0  0
  6  8  1  0  0  0  0
  6  7  1  0  0  0  0
  6  4  1  0  0  0  0
  9  6  1  0  0  0  0
 10  5  1  0  0  0  0
 11 10  1  0  0  0  0
 12 10  1  0  0  0  0
 14 13  1  0  0  0  0
 14 15  1  0  0  0  0
 15 16  1  0  0  0  0
 15 19  2  0  0  0  0
 16 17  1  0  0  0  0
 18 16  1  0  0  0  0
M  END
>  <MODEL>
6

>  <REMARK>
  Name = ZINC05993525
                            x       y       z     vdW  Elec       q    Type
                         _______ _______ _______ _____ _____    ______ ____

>  <TORSDO>
F 5

>  <minimizedAffinity>
-5.8845636012018208

$$$$
ZINC05993525
 OpenBabel10211212473D

 19 19  0  0  0  0  0  0  0  0999 V2000
   49.5830   50.6350   18.2190 C   0  0  0  0  0  0  0  0  0  0  0  0
   48.4340   50.0470   18.4600 N   0  0  0  0  0  0  0  0  0  0  0  0
   48.0760   49.3530   17.4380 N   0  0  0  0  0  0  0  0  0  0  0  0
   48.9720   49.4480   16.4980 C   0  0  0  0  0  0  0  0  0  0  0  0
   49.9630   50.2710   16.9590 N   0  0  0  0  0  0  0  0  0  0  0  0
   48.9230   48.7800   15.1470 C   0  0  0  0  0  0  0  0  0  0  0  0
   50.0690   47.9970   14.9720 F   0  0  0  0  0  0  0  0  0  0  0  0
   47.7850   47.9690   15.0700 F   0  0  0  0  0  0  0  0  0  0  0  0
   48.8680   49.7560   14.1460 F   0  0  0  0  0  0  0  0  0  0  0  0
   51.0960   50.6490   16.2970 N   0  0  0  0  0  0  0  0  0  0  0  0
   50.9410   50.6720   15.3000 H   0  0  0  0  0  0  0  0  0  0  0  0
   51.8690   50.0430   16.5280 H   0  0  0  0  0  0  0  0  0  0  0  0
   50.4690   51.6930   19.3150 S   0  0  0  0  0  0  0  0  0  0  0  0
   51.2340   50.4580   20.3940 C   0  0  0  0  0  0  0  0  0  0  0  0
   52.4030   49.8260   19.6830 C   0  0  0  0  0  0  0  0  0  0  0  0
   52.8170   48.5920   20.0340 N   0  0  0  0  0  0  0  0  0  0  0  0
   53.5700   48.1850   19.5770 H   0  0  0  0  0  0  0  0  0  0  0  0
   52.3640   48.1120   20.7440 H   0  0  0  0  0  0  0  0  0  0  0  0
   52.9700   50.4270   18.7960 O   0  0  0  0  0  0  0  0  0  0  0  0
  1  2  2  0  0  0  0
  1 13  1  0  0  0  0
  3  2  1  0  0  0  0
  4  5  1  0  0  0  0
  4  3  2  0  0  0  0
  5  1  1  0  0  0  0
  6  4  1  0  0  0  0
  7  6  1  0  0  0  0
  8  6  1  0  0  0  0
  9  6  1  0  0  0  0
 10 12  1  0  0  0  0
 10  5  1  0  0  0  0
 11 10  1  0  0  0  0
 13 14  1  0  0  0  0
 15 16  1  0  0  0  0
 15 14  1  0  0  0  0
 16 18  1  0  0  0  0
 17 16  1  0  0  0  0
 19 15  2  0  0  0  0
M  END
>  <MODEL>
7

>  <REMARK>
  Name = ZINC05993525
                            x       y       z     vdW  Elec       q    Type
                         _______ _______ _______ _____ _____    ______ ____

>  <TORSDO>
F 5

>  <minimizedAffinity>
-5.8331008091668561

$$$$
ZINC05993525
 OpenBabel10211212473D

 19 19  0  0  0  0  0  0  0  0999 V2000
   50.9630   53.3230   20.5040 C   0  0  0  0  0  0  0  0  0  0  0  0
   51.8000   53.3480   21.5150 N   0  0  0  0  0  0  0  0  0  0  0  0
   51.9110   54.5490   21.9590 N   0  0  0  0  0  0  0  0  0  0  0  0
   51.1510   55.3520   21.2710 C   0  0  0  0  0  0  0  0  0  0  0  0
   50.5220   54.6010   20.3170 N   0  0  0  0  0  0  0  0  0  0  0  0
   50.9980   56.8370   21.4830 C   0  0  0  0  0  0  0  0  0  0  0  0
   51.1650   57.5020   20.2630 F   0  0  0  0  0  0  0  0  0  0  0  0
   49.7220   57.1060   21.9910 F   0  0  0  0  0  0  0  0  0  0  0  0
   51.9640   57.2800   22.3920 F   0  0  0  0  0  0  0  0  0  0  0  0
   49.6370   55.0390   19.3730 N   0  0  0  0  0  0  0  0  0  0  0  0
   49.4250   56.0170   19.5030 H   0  0  0  0  0  0  0  0  0  0  0  0
   48.7960   54.4830   19.3800 H   0  0  0  0  0  0  0  0  0  0  0  0
   50.4960   51.9060   19.5650 S   0  0  0  0  0  0  0  0  0  0  0  0
   51.3800   50.6180   20.4790 C   0  0  0  0  0  0  0  0  0  0  0  0
   52.4330   50.0050   19.5920 C   0  0  0  0  0  0  0  0  0  0  0  0
   52.9920   48.8250   19.9260 N   0  0  0  0  0  0  0  0  0  0  0  0
   53.6700   48.4310   19.3550 H   0  0  0  0  0  0  0  0  0  0  0  0
   52.7180   48.3720   20.7380 H   0  0  0  0  0  0  0  0  0  0  0  0
   52.7750   50.5730   18.5760 O   0  0  0  0  0  0  0  0  0  0  0  0
  1  2  2  0  0  0  0
  2  3  1  0  0  0  0
  4  6  1  0  0  0  0
  4  3  2  0  0  0  0
  5  1  1  0  0  0  0
  5  4  1  0  0  0  0
  6  8  1  0  0  0  0
  6  9  1  0  0  0  0
  7  6  1  0  0  0  0
 10 12  1  0  0  0  0
 10 11  1  0  0  0  0
 10  5  1  0  0  0  0
 13 14  1  0  0  0  0
 13  1  1  0  0  0  0
 15 16  1  0  0  0  0
 15 14  1  0  0  0  0
 16 18  1  0  0  0  0
 17 16  1  0  0  0  0
 19 15  2  0  0  0  0
M  END
>  <MODEL>
8

>  <REMARK>
  Name = ZINC05993525
                            x       y       z     vdW  Elec       q    Type
                         _______ _______ _______ _____ _____    ______ ____

>  <TORSDO>
F 5

>  <minimizedAffinity>
-5.7319919169272087

$$$$
ZINC05993525
 OpenBabel10211212473D

 19 19  0  0  0  0  0  0  0  0999 V2000
   51.1020   53.6540   21.4130 C   0  0  0  0  0  0  0  0  0  0  0  0
   51.9040   54.2750   22.2460 N   0  0  0  0  0  0  0  0  0  0  0  0
   51.6340   55.5320   22.2580 N   0  0  0  0  0  0  0  0  0  0  0  0
   50.6450   55.7840   21.4480 C   0  0  0  0  0  0  0  0  0  0  0  0
   50.2730   54.5980   20.8770 N   0  0  0  0  0  0  0  0  0  0  0  0
   50.0290   57.1330   21.1830 C   0  0  0  0  0  0  0  0  0  0  0  0
   48.6990   57.1330   21.6160 F   0  0  0  0  0  0  0  0  0  0  0  0
   50.7460   58.1160   21.8750 F   0  0  0  0  0  0  0  0  0  0  0  0
   50.0720   57.4050   19.8110 F   0  0  0  0  0  0  0  0  0  0  0  0
   49.2790   54.3990   19.9620 N   0  0  0  0  0  0  0  0  0  0  0  0
   49.5500   53.7080   19.2790 H   0  0  0  0  0  0  0  0  0  0  0  0
   49.0190   55.2650   19.5160 H   0  0  0  0  0  0  0  0  0  0  0  0
   51.0960   51.9290   21.0530 S   0  0  0  0  0  0  0  0  0  0  0  0
   52.5150   51.8370   19.9340 C   0  0  0  0  0  0  0  0  0  0  0  0
   52.1780   52.5250   18.6370 C   0  0  0  0  0  0  0  0  0  0  0  0
   51.1640   52.0670   17.8750 N   0  0  0  0  0  0  0  0  0  0  0  0
   50.9480   52.5100   17.0390 H   0  0  0  0  0  0  0  0  0  0  0  0
   50.6530   51.2950   18.1610 H   0  0  0  0  0  0  0  0  0  0  0  0
   52.8170   53.4910   18.2790 O   0  0  0  0  0  0  0  0  0  0  0  0
  1  2  2  0  0  0  0
  2  3  1  0  0  0  0
  4  3  2  0  0  0  0
  5  1  1  0  0  0  0
  5  4  1  0  0  0  0
  6  4  1  0  0  0  0
  6  7  1  0  0  0  0
  6  8  1  0  0  0  0
  9  6  1  0  0  0  0
 10  5  1  0  0  0  0
 11 10  1  0  0  0  0
 12 10  1  0  0  0  0
 13  1  1  0  0  0  0
 14 13  1  0  0  0  0
 15 14  1  0  0  0  0
 16 18  1  0  0  0  0
 16 15  1  0  0  0  0
 17 16  1  0  0  0  0
 19 15  2  0  0  0  0
M  END
>  <MODEL>
9

>  <REMARK>
  Name = ZINC05993525
                            x       y       z     vdW  Elec       q    Type
                         _______ _______ _______ _____ _____    ______ ____

>  <TORSDO>
F 5

>  <minimizedAffinity>
-5.706803808487372

$$$$
ZINC58951144
 OpenBabel10211212473D

 19 20  0  0  1  0  0  0  0  0999 V2000
   51.7850   55.0460   20.8480 C   0  0  0  0  0  0  0  0  0  0  0  0
   52.1930   55.7950   22.1240 C   0  0  0  0  0  0  0  0  0  0  0  0
   52.2440   57.2300   21.8100 N   0  0  0  0  0  0  0  0  0  0  0  0
   53.3680   57.9310   22.0540 C   0  0  0  0  0  0  0  0  0  0  0  0
   53.4120   59.1250   21.7930 O   0  0  0  0  0  0  0  0  0  0  0  0
   54.3450   57.3740   22.5360 O   0  0  0  0  0  0  0  0  0  0  0  0
   51.0810   57.8960   21.2350 C   0  0  1  0  0  0  0  0  0  0  0  0
   50.5440   57.1060   20.0220 C   0  0  2  0  0  0  0  0  0  0  0  0
   49.1170   57.5350   19.9820 N   0  0  0  0  0  0  0  0  0  0  0  0
   48.5530   56.8360   19.5240 H   0  0  0  0  0  0  0  0  0  0  0  0
   49.0320   58.4230   19.5110 H   0  0  0  0  0  0  0  0  0  0  0  0
   48.7280   57.6640   21.4030 C   0  0  0  0  0  0  0  0  0  0  0  0
   49.9590   57.9130   22.1950 N   0  0  0  0  0  0  0  0  0  0  0  0
   49.9090   58.8120   22.6510 H   0  0  0  0  0  0  0  0  0  0  0  0
   50.0800   57.1830   22.8790 H   0  0  0  0  0  0  0  0  0  0  0  0
   50.5630   55.6690   20.3250 N   0  0  0  0  0  0  0  0  0  0  0  0
   49.4590   54.9240   20.1240 C   0  0  0  0  0  0  0  0  0  0  0  0
   48.3750   55.4670   19.9620 O   0  0  0  0  0  0  0  0  0  0  0  0
   49.5400   53.7040   20.1030 O   0  0  0  0  0  0  0  0  0  0  0  0
  1  2  1  0  0  0  0
  3  4  1  0  0  0  0
  3  2  1  0  0  0  0
  4  6  1  0  0  0  0
  5  4  2  0  0  0  0
  7  3  1  1  0  0  0
  7 13  1  0  0  0  0
  8  9  1  1  0  0  0
  8 16  1  0  0  0  0
  8  7  1  0  0  0  0
  9 12  1  0  0  0  0
 10  9  1  0  0  0  0
 11  9  1  0  0  0  0
 12 13  1  0  0  0  0
 13 14  1  0  0  0  0
 13 15  1  0  0  0  0
 16  1  1  0  0  0  0
 17 16  1  0  0  0  0
 18 17  2  0  0  0  0
 19 17  1  0  0  0  0
M  END
>  <MODEL>
1

>  <REMARK>
  Name = ZINC58951144
                            x       y       z     vdW  Elec       q    Type
                         _______ _______ _______ _____ _____    ______ ____

>  <TORSDO>
F 0

>  <minimizedAffinity>
-6.5170115445021723

$$$$
ZINC58951144
 OpenBabel10211212473D

 19 20  0  0  1  0  0  0  0  0999 V2000
   51.8470   52.3940   21.6000 C   0  0  0  0  0  0  0  0  0  0  0  0
   51.2290   53.7900   21.7580 C   0  0  0  0  0  0  0  0  0  0  0  0
   51.6940   54.6190   20.6370 N   0  0  0  0  0  0  0  0  0  0  0  0
   52.3110   55.7920   20.8810 C   0  0  0  0  0  0  0  0  0  0  0  0
   52.7000   56.4830   19.9500 O   0  0  0  0  0  0  0  0  0  0  0  0
   52.4830   56.1650   22.0340 O   0  0  0  0  0  0  0  0  0  0  0  0
   51.4910   54.1760   19.2630 C   0  0  1  0  0  0  0  0  0  0  0  0
   51.9740   52.7200   19.0820 C   0  0  2  0  0  0  0  0  0  0  0  0
   51.1630   52.2700   17.9160 N   0  0  0  0  0  0  0  0  0  0  0  0
   51.0640   51.2660   17.9240 H   0  0  0  0  0  0  0  0  0  0  0  0
   51.5900   52.5760   17.0540 H   0  0  0  0  0  0  0  0  0  0  0  0
   49.8490   52.9210   18.1020 C   0  0  0  0  0  0  0  0  0  0  0  0
   50.0530   54.1350   18.9330 N   0  0  0  0  0  0  0  0  0  0  0  0
   49.7940   54.9630   18.4170 H   0  0  0  0  0  0  0  0  0  0  0  0
   49.5070   54.0680   19.7780 H   0  0  0  0  0  0  0  0  0  0  0  0
   51.5610   51.9190   20.2410 N   0  0  0  0  0  0  0  0  0  0  0  0
   50.9180   50.7490   20.0560 C   0  0  0  0  0  0  0  0  0  0  0  0
   50.4320   50.4840   18.9660 O   0  0  0  0  0  0  0  0  0  0  0  0
   50.8210   49.9530   20.9790 O   0  0  0  0  0  0  0  0  0  0  0  0
  1  2  1  0  0  0  0
  3  4  1  0  0  0  0
  3  2  1  0  0  0  0
  4  6  1  0  0  0  0
  5  4  2  0  0  0  0
  7 13  1  1  0  0  0
  7  3  1  0  0  0  0
  8  9  1  1  0  0  0
  8  7  1  0  0  0  0
  8 16  1  0  0  0  0
  9 10  1  0  0  0  0
  9 12  1  0  0  0  0
 11  9  1  0  0  0  0
 12 13  1  0  0  0  0
 13 15  1  0  0  0  0
 14 13  1  0  0  0  0
 16  1  1  0  0  0  0
 17 16  1  0  0  0  0
 17 19  1  0  0  0  0
 18 17  2  0  0  0  0
M  END
>  <MODEL>
2

>  <REMARK>
  Name = ZINC58951144
                            x       y       z     vdW  Elec       q    Type
                         _______ _______ _______ _____ _____    ______ ____

>  <TORSDO>
F 0

>  <minimizedAffinity>
-6.2135482653781553

$$$$
ZINC58951144
 OpenBabel10211212473D

 19 20  0  0  1  0  0  0  0  0999 V2000
   49.9110   57.5630   21.3130 C   0  0  0  0  0  0  0  0  0  0  0  0
   51.2000   58.1960   20.7720 C   0  0  0  0  0  0  0  0  0  0  0  0
   52.3330   57.3880   21.2420 N   0  0  0  0  0  0  0  0  0  0  0  0
   53.3370   57.9720   21.9250 C   0  0  0  0  0  0  0  0  0  0  0  0
   54.2810   57.3000   22.3180 O   0  0  0  0  0  0  0  0  0  0  0  0
   53.3050   59.1730   22.1530 O   0  0  0  0  0  0  0  0  0  0  0  0
   52.3740   55.9550   20.9730 C   0  0  1  0  0  0  0  0  0  0  0  0
   51.0420   55.2860   21.3750 C   0  0  2  0  0  0  0  0  0  0  0  0
   51.0300   54.0760   20.5050 N   0  0  0  0  0  0  0  0  0  0  0  0
   50.0830   53.7600   20.3550 H   0  0  0  0  0  0  0  0  0  0  0  0
   51.5860   53.3420   20.9180 H   0  0  0  0  0  0  0  0  0  0  0  0
   51.6320   54.5270   19.2320 C   0  0  0  0  0  0  0  0  0  0  0  0
   52.4980   55.6980   19.5240 N   0  0  0  0  0  0  0  0  0  0  0  0
   53.4580   55.4940   19.2910 H   0  0  0  0  0  0  0  0  0  0  0  0
   52.1770   56.4990   19.0030 H   0  0  0  0  0  0  0  0  0  0  0  0
   49.9210   56.1380   20.9590 N   0  0  0  0  0  0  0  0  0  0  0  0
   48.9010   55.6120   20.2530 C   0  0  0  0  0  0  0  0  0  0  0  0
   49.0270   54.5190   19.7190 O   0  0  0  0  0  0  0  0  0  0  0  0
   47.8500   56.2280   20.1450 O   0  0  0  0  0  0  0  0  0  0  0  0
  2  3  1  0  0  0  0
  2  1  1  0  0  0  0
  3  4  1  0  0  0  0
  4  6  2  0  0  0  0
  4  5  1  0  0  0  0
  7 13  1  6  0  0  0
  7  3  1  0  0  0  0
  7  8  1  0  0  0  0
  8  9  1  6  0  0  0
  9 11  1  0  0  0  0
 10  9  1  0  0  0  0
 12 13  1  0  0  0  0
 12  9  1  0  0  0  0
 14 13  1  0  0  0  0
 15 13  1  0  0  0  0
 16  1  1  0  0  0  0
 16  8  1  0  0  0  0
 17 16  1  0  0  0  0
 18 17  2  0  0  0  0
 19 17  1  0  0  0  0
M  END
>  <MODEL>
3

>  <REMARK>
  Name = ZINC58951144
                            x       y       z     vdW  Elec       q    Type
                         _______ _______ _______ _____ _____    ______ ____

>  <TORSDO>
F 0

>  <minimizedAffinity>
-6.1247120561382333

$$$$
ZINC58951144
 OpenBabel10211212473D

 19 20  0  0  1  0  0  0  0  0999 V2000
   49.3990   49.0200   19.0650 C   0  0  0  0  0  0  0  0  0  0  0  0
   50.2630   50.2400   19.4120 C   0  0  0  0  0  0  0  0  0  0  0  0
   50.9960   50.6350   18.2010 N   0  0  0  0  0  0  0  0  0  0  0  0
   52.3390   50.7350   18.2310 C   0  0  0  0  0  0  0  0  0  0  0  0
   52.9510   51.0630   17.2240 O   0  0  0  0  0  0  0  0  0  0  0  0
   52.9480   50.4990   19.2660 O   0  0  0  0  0  0  0  0  0  0  0  0
   50.2730   50.9160   16.9660 C   0  0  1  0  0  0  0  0  0  0  0  0
   49.2850   49.7760   16.6410 C   0  0  2  0  0  0  0  0  0  0  0  0
   48.2740   50.4760   15.7980 N   0  0  0  0  0  0  0  0  0  0  0  0
   47.3880   49.9940   15.8390 H   0  0  0  0  0  0  0  0  0  0  0  0
   48.5970   50.5420   14.8450 H   0  0  0  0  0  0  0  0  0  0  0  0
   48.1580   51.8230   16.3980 C   0  0  0  0  0  0  0  0  0  0  0  0
   49.4240   52.1140   17.1170 N   0  0  0  0  0  0  0  0  0  0  0  0
   49.8830   52.9160   16.7120 H   0  0  0  0  0  0  0  0  0  0  0  0
   49.2330   52.2800   18.0930 H   0  0  0  0  0  0  0  0  0  0  0  0
   48.6100   49.3460   17.8720 N   0  0  0  0  0  0  0  0  0  0  0  0
   47.2660   49.2510   17.9050 C   0  0  0  0  0  0  0  0  0  0  0  0
   46.5930   49.7780   17.0300 O   0  0  0  0  0  0  0  0  0  0  0  0
   46.7190   48.6380   18.8110 O   0  0  0  0  0  0  0  0  0  0  0  0
  1  2  1  0  0  0  0
  3  4  1  0  0  0  0
  3  2  1  0  0  0  0
  4  6  1  0  0  0  0
  5  4  2  0  0  0  0
  7 13  1  1  0  0  0
  7  3  1  0  0  0  0
  8  9  1  1  0  0  0
  8  7  1  0  0  0  0
  8 16  1  0  0  0  0
  9 10  1  0  0  0  0
  9 12  1  0  0  0  0
 11  9  1  0  0  0  0
 12 13  1  0  0  0  0
 13 15  1  0  0  0  0
 14 13  1  0  0  0  0
 16 17  1  0  0  0  0
 16  1  1  0  0  0  0
 17 19  1  0  0  0  0
 18 17  2  0  0  0  0
M  END
>  <MODEL>
4

>  <REMARK>
  Name = ZINC58951144
                            x       y       z     vdW  Elec       q    Type
                         _______ _______ _______ _____ _____    ______ ____

>  <TORSDO>
F 0

>  <minimizedAffinity>
-6.0981306580950587

$$$$
ZINC58951144
 OpenBabel10211212473D

 19 20  0  0  1  0  0  0  0  0999 V2000
   49.8170   52.7000   18.7310 C   0  0  0  0  0  0  0  0  0  0  0  0
   51.0680   53.5780   18.5920 C   0  0  0  0  0  0  0  0  0  0  0  0
   51.6250   53.7870   19.9360 N   0  0  0  0  0  0  0  0  0  0  0  0
   51.8310   55.0390   20.3890 C   0  0  0  0  0  0  0  0  0  0  0  0
   52.2940   55.2160   21.5080 O   0  0  0  0  0  0  0  0  0  0  0  0
   51.5560   56.0000   19.6820 O   0  0  0  0  0  0  0  0  0  0  0  0
   51.9520   52.6450   20.7810 C   0  0  1  0  0  0  0  0  0  0  0  0
   50.7670   51.6570   20.8450 C   0  0  2  0  0  0  0  0  0  0  0  0
   51.4540   50.3750   21.1750 N   0  0  0  0  0  0  0  0  0  0  0  0
   50.9000   49.5900   20.8660 H   0  0  0  0  0  0  0  0  0  0  0  0
   51.6280   50.3160   22.1670 H   0  0  0  0  0  0  0  0  0  0  0  0
   52.7290   50.4330   20.4290 C   0  0  0  0  0  0  0  0  0  0  0  0
   53.0590   51.8620   20.1970 N   0  0  0  0  0  0  0  0  0  0  0  0
   53.9280   52.1020   20.6510 H   0  0  0  0  0  0  0  0  0  0  0  0
   53.1240   52.0420   19.2070 H   0  0  0  0  0  0  0  0  0  0  0  0
   50.1790   51.5090   19.5080 N   0  0  0  0  0  0  0  0  0  0  0  0
   49.9730   50.2800   18.9950 C   0  0  0  0  0  0  0  0  0  0  0  0
   50.5170   49.3080   19.4980 O   0  0  0  0  0  0  0  0  0  0  0  0
   49.2410   50.1380   18.0250 O   0  0  0  0  0  0  0  0  0  0  0  0
  1 16  1  0  0  0  0
  2  1  1  0  0  0  0
  2  3  1  0  0  0  0
  3  4  1  0  0  0  0
  4  5  1  0  0  0  0
  6  4  2  0  0  0  0
  7  3  1  6  0  0  0
  7  8  1  0  0  0  0
  8 16  1  6  0  0  0
  8  9  1  0  0  0  0
  9 11  1  0  0  0  0
 10  9  1  0  0  0  0
 12  9  1  0  0  0  0
 13 12  1  0  0  0  0
 13 14  1  0  0  0  0
 13  7  1  0  0  0  0
 15 13  1  0  0  0  0
 17 18  1  0  0  0  0
 17 16  1  0  0  0  0
 19 17  2  0  0  0  0
M  END
>  <MODEL>
5

>  <REMARK>
  Name = ZINC58951144
                            x       y       z     vdW  Elec       q    Type
                         _______ _______ _______ _____ _____    ______ ____

>  <TORSDO>
F 0

>  <minimizedAffinity>
-6.0363207373656769

$$$$
ZINC58951144
 OpenBabel10211212473D

 19 20  0  0  1  0  0  0  0  0999 V2000
   50.1680   53.2260   18.7740 C   0  0  0  0  0  0  0  0  0  0  0  0
   51.5480   52.5850   18.5800 C   0  0  0  0  0  0  0  0  0  0  0  0
   51.4030   51.1340   18.7650 N   0  0  0  0  0  0  0  0  0  0  0  0
   52.1700   50.4930   19.6690 C   0  0  0  0  0  0  0  0  0  0  0  0
   52.0510   49.2860   19.8250 O   0  0  0  0  0  0  0  0  0  0  0  0
   52.9860   51.1180   20.3330 O   0  0  0  0  0  0  0  0  0  0  0  0
   50.4320   50.3870   17.9750 C   0  0  1  0  0  0  0  0  0  0  0  0
   49.0470   51.0700   18.0270 C   0  0  2  0  0  0  0  0  0  0  0  0
   48.4200   50.5880   16.7630 N   0  0  0  0  0  0  0  0  0  0  0  0
   47.7060   51.2320   16.4570 H   0  0  0  0  0  0  0  0  0  0  0  0
   48.0310   49.6660   16.8950 H   0  0  0  0  0  0  0  0  0  0  0  0
   49.5310   50.5450   15.7880 C   0  0  0  0  0  0  0  0  0  0  0  0
   50.7990   50.3970   16.5460 N   0  0  0  0  0  0  0  0  0  0  0  0
   51.2570   49.5320   16.3020 H   0  0  0  0  0  0  0  0  0  0  0  0
   51.4070   51.1780   16.3520 H   0  0  0  0  0  0  0  0  0  0  0  0
   49.2130   52.5240   17.9080 N   0  0  0  0  0  0  0  0  0  0  0  0
   48.4890   53.2130   17.0040 C   0  0  0  0  0  0  0  0  0  0  0  0
   47.9120   52.6210   16.1030 O   0  0  0  0  0  0  0  0  0  0  0  0
   48.4100   54.4310   17.0850 O   0  0  0  0  0  0  0  0  0  0  0  0
  2  3  1  0  0  0  0
  2  1  1  0  0  0  0
  3  4  1  0  0  0  0
  4  5  2  0  0  0  0
  4  6  1  0  0  0  0
  7 13  1  6  0  0  0
  7  8  1  0  0  0  0
  7  3  1  0  0  0  0
  8  9  1  6  0  0  0
  9 11  1  0  0  0  0
 10  9  1  0  0  0  0
 12 13  1  0  0  0  0
 12  9  1  0  0  0  0
 14 13  1  0  0  0  0
 15 13  1  0  0  0  0
 16  8  1  0  0  0  0
 16  1  1  0  0  0  0
 17 19  1  0  0  0  0
 17 16  1  0  0  0  0
 18 17  2  0  0  0  0
M  END
>  <MODEL>
6

>  <REMARK>
  Name = ZINC58951144
                            x       y       z     vdW  Elec       q    Type
                         _______ _______ _______ _____ _____    ______ ____

>  <TORSDO>
F 0

>  <minimizedAffinity>
-6.0276537805799588

$$$$
ZINC58951144
 OpenBabel10211212473D

 19 20  0  0  1  0  0  0  0  0999 V2000
   50.4420   57.4770   21.6190 C   0  0  0  0  0  0  0  0  0  0  0  0
   48.9280   57.4190   21.3780 C   0  0  0  0  0  0  0  0  0  0  0  0
   48.7070   57.2180   19.9390 N   0  0  0  0  0  0  0  0  0  0  0  0
   47.9290   58.0770   19.2520 C   0  0  0  0  0  0  0  0  0  0  0  0
   47.7450   57.9120   18.0540 O   0  0  0  0  0  0  0  0  0  0  0  0
   47.4080   59.0240   19.8260 O   0  0  0  0  0  0  0  0  0  0  0  0
   49.3280   56.0910   19.2520 C   0  0  1  0  0  0  0  0  0  0  0  0
   50.8370   56.0220   19.5720 C   0  0  2  0  0  0  0  0  0  0  0  0
   51.1340   54.5790   19.3420 N   0  0  0  0  0  0  0  0  0  0  0  0
   51.9440   54.2980   19.8740 H   0  0  0  0  0  0  0  0  0  0  0  0
   51.2790   54.4040   18.3590 H   0  0  0  0  0  0  0  0  0  0  0  0
   49.9290   53.8700   19.8210 C   0  0  0  0  0  0  0  0  0  0  0  0
   48.7830   54.8110   19.7460 N   0  0  0  0  0  0  0  0  0  0  0  0
   48.0830   54.4650   19.1070 H   0  0  0  0  0  0  0  0  0  0  0  0
   48.3830   54.9380   20.6630 H   0  0  0  0  0  0  0  0  0  0  0  0
   51.0480   56.2920   21.0000 N   0  0  0  0  0  0  0  0  0  0  0  0
   51.7980   55.4520   21.7410 C   0  0  0  0  0  0  0  0  0  0  0  0
   52.0670   54.3370   21.3170 O   0  0  0  0  0  0  0  0  0  0  0  0
   52.2070   55.8040   22.8380 O   0  0  0  0  0  0  0  0  0  0  0  0
  2  1  1  0  0  0  0
  3  2  1  0  0  0  0
  4  6  1  0  0  0  0
  4  3  1  0  0  0  0
  5  4  2  0  0  0  0
  7  8  1  0  0  0  0
  7 13  1  1  0  0  0
  7  3  1  0  0  0  0
  8  9  1  1  0  0  0
  8 16  1  0  0  0  0
  9 12  1  0  0  0  0
  9 10  1  0  0  0  0
 11  9  1  0  0  0  0
 13 12  1  0  0  0  0
 13 15  1  0  0  0  0
 14 13  1  0  0  0  0
 16  1  1  0  0  0  0
 16 17  1  0  0  0  0
 17 19  1  0  0  0  0
 18 17  2  0  0  0  0
M  END
>  <MODEL>
7

>  <REMARK>
  Name = ZINC58951144
                            x       y       z     vdW  Elec       q    Type
                         _______ _______ _______ _____ _____    ______ ____

>  <TORSDO>
F 0

>  <minimizedAffinity>
-5.9912342090149409

$$$$
ZINC58951144
 OpenBabel10211212473D

 19 20  0  0  1  0  0  0  0  0999 V2000
   50.7100   53.2340   18.8910 C   0  0  0  0  0  0  0  0  0  0  0  0
   49.3010   52.7740   18.4930 C   0  0  0  0  0  0  0  0  0  0  0  0
   49.4400   51.6510   17.5560 N   0  0  0  0  0  0  0  0  0  0  0  0
   48.8450   51.7050   16.3490 C   0  0  0  0  0  0  0  0  0  0  0  0
   48.9600   50.7710   15.5680 O   0  0  0  0  0  0  0  0  0  0  0  0
   48.1900   52.6900   16.0330 O   0  0  0  0  0  0  0  0  0  0  0  0
   50.2210   50.4770   17.9300 C   0  0  1  0  0  0  0  0  0  0  0  0
   51.6070   50.8930   18.4690 C   0  0  2  0  0  0  0  0  0  0  0  0
   51.9660   49.7280   19.3260 N   0  0  0  0  0  0  0  0  0  0  0  0
   52.6240   50.0050   20.0390 H   0  0  0  0  0  0  0  0  0  0  0  0
   52.3480   48.9830   18.7630 H   0  0  0  0  0  0  0  0  0  0  0  0
   50.6870   49.3080   19.9390 C   0  0  0  0  0  0  0  0  0  0  0  0
   49.5850   49.7590   19.0520 N   0  0  0  0  0  0  0  0  0  0  0  0
   49.0650   48.9670   18.7040 H   0  0  0  0  0  0  0  0  0  0  0  0
   48.9720   50.3820   19.5560 H   0  0  0  0  0  0  0  0  0  0  0  0
   51.4600   52.0590   19.3490 N   0  0  0  0  0  0  0  0  0  0  0  0
   52.0150   52.0490   20.5780 C   0  0  0  0  0  0  0  0  0  0  0  0
   52.3910   50.9940   21.0710 O   0  0  0  0  0  0  0  0  0  0  0  0
   52.1410   53.0940   21.2000 O   0  0  0  0  0  0  0  0  0  0  0  0
  1 16  1  0  0  0  0
  2  1  1  0  0  0  0
  3  2  1  0  0  0  0
  4  3  1  0  0  0  0
  5  4  2  0  0  0  0
  6  4  1  0  0  0  0
  7  3  1  1  0  0  0
  7  8  1  0  0  0  0
  7 13  1  0  0  0  0
  8  9  1  1  0  0  0
  8 16  1  0  0  0  0
  9 12  1  0  0  0  0
  9 10  1  0  0  0  0
 11  9  1  0  0  0  0
 13 15  1  0  0  0  0
 13 12  1  0  0  0  0
 14 13  1  0  0  0  0
 16 17  1  0  0  0  0
 17 18  2  0  0  0  0
 17 19  1  0  0  0  0
M  END
>  <MODEL>
8

>  <REMARK>
  Name = ZINC58951144
                            x       y       z     vdW  Elec       q    Type
                         _______ _______ _______ _____ _____    ______ ____

>  <TORSDO>
F 0

>  <minimizedAffinity>
-5.986146044470809

$$$$
ZINC58951144
 OpenBabel10211212473D

 19 20  0  0  1  0  0  0  0  0999 V2000
   48.8180   55.8030   19.4660 C   0  0  0  0  0  0  0  0  0  0  0  0
   49.3420   54.3860   19.7320 C   0  0  0  0  0  0  0  0  0  0  0  0
   50.8030   54.4060   19.5760 N   0  0  0  0  0  0  0  0  0  0  0  0
   51.3990   53.5530   18.7210 C   0  0  0  0  0  0  0  0  0  0  0  0
   52.6150   53.5690   18.5890 O   0  0  0  0  0  0  0  0  0  0  0  0
   50.7240   52.7620   18.0750 O   0  0  0  0  0  0  0  0  0  0  0  0
   51.6090   55.3480   20.3440 C   0  0  1  0  0  0  0  0  0  0  0  0
   51.0410   56.7790   20.2200 C   0  0  2  0  0  0  0  0  0  0  0  0
   51.5460   57.4190   21.4680 N   0  0  0  0  0  0  0  0  0  0  0  0
   50.9550   58.1940   21.7290 H   0  0  0  0  0  0  0  0  0  0  0  0
   52.4990   57.7270   21.3430 H   0  0  0  0  0  0  0  0  0  0  0  0
   51.4780   56.3510   22.4880 C   0  0  0  0  0  0  0  0  0  0  0  0
   51.5390   55.0430   21.7870 N   0  0  0  0  0  0  0  0  0  0  0  0
   52.3590   54.5290   22.0700 H   0  0  0  0  0  0  0  0  0  0  0  0
   50.7080   54.5080   21.9860 H   0  0  0  0  0  0  0  0  0  0  0  0
   49.5770   56.7350   20.3090 N   0  0  0  0  0  0  0  0  0  0  0  0
   48.9290   57.5490   21.1660 C   0  0  0  0  0  0  0  0  0  0  0  0
   49.5470   58.1150   22.0570 O   0  0  0  0  0  0  0  0  0  0  0  0
   47.7240   57.7220   21.0520 O   0  0  0  0  0  0  0  0  0  0  0  0
  1  2  1  0  0  0  0
  1 16  1  0  0  0  0
  3  2  1  0  0  0  0
  4  3  1  0  0  0  0
  5  4  1  0  0  0  0
  6  4  2  0  0  0  0
  7  3  1  1  0  0  0
  7 13  1  0  0  0  0
  8 16  1  1  0  0  0
  8  7  1  0  0  0  0
  8  9  1  0  0  0  0
  9 10  1  0  0  0  0
  9 12  1  0  0  0  0
 11  9  1  0  0  0  0
 13 15  1  0  0  0  0
 13 14  1  0  0  0  0
 13 12  1  0  0  0  0
 16 17  1  0  0  0  0
 17 18  1  0  0  0  0
 19 17  2  0  0  0  0
M  END
>  <MODEL>
9

>  <REMARK>
  Name = ZINC58951144
                            x       y       z     vdW  Elec       q    Type
                         _______ _______ _______ _____ _____    ______ ____

>  <TORSDO>
F 0

>  <minimizedAffinity>
-5.9734591193873783

$$$$
ZINC40479566
 OpenBabel10211212483D

 22 23  0  0  1  0  0  0  0  0999 V2000
   49.6210   49.1840   17.8200 N   0  0  0  0  0  0  0  0  0  0  0  0
   50.4720   49.4350   17.4260 H   0  0  0  0  0  0  0  0  0  0  0  0
   49.4990   49.0940   19.1600 C   0  0  0  0  0  0  0  0  0  0  0  0
   48.4350   48.7810   19.6520 O   0  0  0  0  0  0  0  0  0  0  0  0
   50.6830   49.3830   20.0460 C   0  0  2  0  0  0  0  0  0  0  0  0
   50.8020   50.9030   20.3220 C   0  0  0  0  0  0  0  0  0  0  0  0
   52.3010   51.0780   20.6550 C   0  0  2  0  0  0  0  0  0  0  0  0
   52.9990   49.8610   20.0210 C   0  0  0  0  0  0  0  0  0  0  0  0
   51.9530   49.0610   19.3440 N   0  0  0  0  0  0  0  0  0  0  0  0
   51.8900   49.3240   18.3730 H   0  0  0  0  0  0  0  0  0  0  0  0
   52.1550   48.0760   19.4270 H   0  0  0  0  0  0  0  0  0  0  0  0
   52.4960   51.0830   22.0710 O   0  0  0  0  0  0  0  0  0  0  0  0
   53.0730   50.3750   22.3910 H   0  0  0  0  0  0  0  0  0  0  0  0
   48.0270   51.5630   15.8150 C   0  0  0  0  0  0  0  0  0  0  0  0
   49.2110   50.6950   15.3840 C   0  0  0  0  0  0  0  0  0  0  0  0
   48.8310   49.2180   15.5060 C   0  0  0  0  0  0  0  0  0  0  0  0
   48.4700   48.9020   16.9590 C   0  0  0  0  0  0  0  0  0  0  0  0
   47.2860   49.7710   17.3900 C   0  0  0  0  0  0  0  0  0  0  0  0
   47.6670   51.2480   17.2680 C   0  0  0  0  0  0  0  0  0  0  0  0
   48.0960   47.4480   17.0800 C   0  0  0  0  0  0  0  0  0  0  0  0
   48.9360   46.5850   16.8900 O   0  0  0  0  0  0  0  0  0  0  0  0
   46.9540   47.1340   17.3670 O   0  0  0  0  0  0  0  0  0  0  0  0
  1  3  1  0  0  0  0
  2  1  1  0  0  0  0
  3  4  2  0  0  0  0
  5  3  1  6  0  0  0
  5  6  1  0  0  0  0
  6  7  1  0  0  0  0
  7 12  1  1  0  0  0
  8  7  1  0  0  0  0
  9 11  1  0  0  0  0
  9  8  1  0  0  0  0
  9  5  1  0  0  0  0
 10  9  1  0  0  0  0
 12 13  1  0  0  0  0
 14 19  1  0  0  0  0
 15 16  1  0  0  0  0
 15 14  1  0  0  0  0
 16 17  1  0  0  0  0
 17 20  1  0  0  0  0
 17 18  1  0  0  0  0
 17  1  1  0  0  0  0
 19 18  1  0  0  0  0
 20 22  1  0  0  0  0
 21 20  2  0  0  0  0
M  END
>  <MODEL>
1

>  <REMARK>
  Name = ZINC40479566
                            x       y       z     vdW  Elec       q    Type
                         _______ _______ _______ _____ _____    ______ ____

>  <TORSDO>
F 4

>  <minimizedAffinity>
-7.0793195481786553

$$$$
ZINC40479566
 OpenBabel10211212483D

 22 23  0  0  1  0  0  0  0  0999 V2000
   49.9400   49.4380   16.9350 N   0  0  0  0  0  0  0  0  0  0  0  0
   50.4420   48.6800   17.2730 H   0  0  0  0  0  0  0  0  0  0  0  0
   50.2820   50.6900   17.3020 C   0  0  0  0  0  0  0  0  0  0  0  0
   49.6550   51.6380   16.8790 O   0  0  0  0  0  0  0  0  0  0  0  0
   51.4420   50.9100   18.2380 C   0  0  2  0  0  0  0  0  0  0  0  0
   50.9870   50.7850   19.7140 C   0  0  0  0  0  0  0  0  0  0  0  0
   52.0440   51.6180   20.4740 C   0  0  2  0  0  0  0  0  0  0  0  0
   52.6360   52.5740   19.4210 C   0  0  0  0  0  0  0  0  0  0  0  0
   51.9310   52.3100   18.1470 N   0  0  0  0  0  0  0  0  0  0  0  0
   51.1530   52.9440   18.0440 H   0  0  0  0  0  0  0  0  0  0  0  0
   52.5650   52.4070   17.3680 H   0  0  0  0  0  0  0  0  0  0  0  0
   53.0620   50.7650   21.0010 O   0  0  0  0  0  0  0  0  0  0  0  0
   53.1920   50.8520   21.9560 H   0  0  0  0  0  0  0  0  0  0  0  0
   46.9270   47.9210   17.8520 C   0  0  0  0  0  0  0  0  0  0  0  0
   47.2280   49.4180   17.9480 C   0  0  0  0  0  0  0  0  0  0  0  0
   47.5800   49.9570   16.5610 C   0  0  0  0  0  0  0  0  0  0  0  0
   48.8120   49.2240   16.0260 C   0  0  0  0  0  0  0  0  0  0  0  0
   48.5110   47.7260   15.9300 C   0  0  0  0  0  0  0  0  0  0  0  0
   48.1590   47.1870   17.3180 C   0  0  0  0  0  0  0  0  0  0  0  0
   49.1600   49.7550   14.6600 C   0  0  0  0  0  0  0  0  0  0  0  0
   48.2990   50.2770   13.9720 O   0  0  0  0  0  0  0  0  0  0  0  0
   50.3010   49.6620   14.2420 O   0  0  0  0  0  0  0  0  0  0  0  0
  1  2  1  0  0  0  0
  1  3  1  0  0  0  0
  4  3  2  0  0  0  0
  5  3  1  1  0  0  0
  5  6  1  0  0  0  0
  6  7  1  0  0  0  0
  7 12  1  6  0  0  0
  8  7  1  0  0  0  0
  9  5  1  0  0  0  0
  9  8  1  0  0  0  0
 10  9  1  0  0  0  0
 11  9  1  0  0  0  0
 12 13  1  0  0  0  0
 14 15  1  0  0  0  0
 16 15  1  0  0  0  0
 17 16  1  0  0  0  0
 17  1  1  0  0  0  0
 18 17  1  0  0  0  0
 18 19  1  0  0  0  0
 19 14  1  0  0  0  0
 20 17  1  0  0  0  0
 21 20  2  0  0  0  0
 22 20  1  0  0  0  0
M  END
>  <MODEL>
2

>  <REMARK>
  Name = ZINC40479566
                            x       y       z     vdW  Elec       q    Type
                         _______ _______ _______ _____ _____    ______ ____

>  <TORSDO>
F 4

>  <minimizedAffinity>
-7.0163607210807211

$$$$
ZINC40479566
 OpenBabel10211212483D

 22 23  0  0  1  0  0  0  0  0999 V2000
   49.3590   49.2040   17.7230 N   0  0  0  0  0  0  0  0  0  0  0  0
   49.7990   48.3530   17.8770 H   0  0  0  0  0  0  0  0  0  0  0  0
   49.6470   50.2630   18.5060 C   0  0  0  0  0  0  0  0  0  0  0  0
   49.0990   51.3270   18.3130 O   0  0  0  0  0  0  0  0  0  0  0  0
   50.6520   50.1240   19.6210 C   0  0  2  0  0  0  0  0  0  0  0  0
   51.2160   51.5100   20.0240 C   0  0  0  0  0  0  0  0  0  0  0  0
   52.5850   51.1560   20.6510 C   0  0  2  0  0  0  0  0  0  0  0  0
   52.9460   49.7750   20.0760 C   0  0  0  0  0  0  0  0  0  0  0  0
   51.8540   49.3860   19.1550 N   0  0  0  0  0  0  0  0  0  0  0  0
   52.0840   49.6560   18.2110 H   0  0  0  0  0  0  0  0  0  0  0  0
   51.6910   48.3910   19.2030 H   0  0  0  0  0  0  0  0  0  0  0  0
   52.4750   51.0910   22.0750 O   0  0  0  0  0  0  0  0  0  0  0  0
   52.4320   50.1900   22.4250 H   0  0  0  0  0  0  0  0  0  0  0  0
   46.4030   47.3520   17.4890 C   0  0  0  0  0  0  0  0  0  0  0  0
   46.5510   48.6930   18.2120 C   0  0  0  0  0  0  0  0  0  0  0  0
   47.0300   49.7560   17.2220 C   0  0  0  0  0  0  0  0  0  0  0  0
   48.3830   49.3380   16.6400 C   0  0  0  0  0  0  0  0  0  0  0  0
   48.2340   47.9970   15.9170 C   0  0  0  0  0  0  0  0  0  0  0  0
   47.7550   46.9340   16.9080 C   0  0  0  0  0  0  0  0  0  0  0  0
   48.8550   50.3850   15.6650 C   0  0  0  0  0  0  0  0  0  0  0  0
   49.9360   50.2610   15.1150 O   0  0  0  0  0  0  0  0  0  0  0  0
   48.1560   51.3550   15.4240 O   0  0  0  0  0  0  0  0  0  0  0  0
  1  2  1  0  0  0  0
  1  3  1  0  0  0  0
  4  3  2  0  0  0  0
  5  3  1  6  0  0  0
  5  6  1  0  0  0  0
  6  7  1  0  0  0  0
  7 12  1  1  0  0  0
  8  7  1  0  0  0  0
  9 11  1  0  0  0  0
  9  5  1  0  0  0  0
  9  8  1  0  0  0  0
 10  9  1  0  0  0  0
 12 13  1  0  0  0  0
 14 15  1  0  0  0  0
 16 15  1  0  0  0  0
 17 16  1  0  0  0  0
 17  1  1  0  0  0  0
 18 17  1  0  0  0  0
 18 19  1  0  0  0  0
 19 14  1  0  0  0  0
 20 17  1  0  0  0  0
 21 20  2  0  0  0  0
 22 20  1  0  0  0  0
M  END
>  <MODEL>
3

>  <REMARK>
  Name = ZINC40479566
                            x       y       z     vdW  Elec       q    Type
                         _______ _______ _______ _____ _____    ______ ____

>  <TORSDO>
F 4

>  <minimizedAffinity>
-6.9928651945671918

$$$$
ZINC40479566
 OpenBabel10211212483D

 22 23  0  0  1  0  0  0  0  0999 V2000
   50.9650   54.3160   20.6430 N   0  0  0  0  0  0  0  0  0  0  0  0
   50.8620   54.0770   21.5780 H   0  0  0  0  0  0  0  0  0  0  0  0
   51.5230   53.4430   19.7810 C   0  0  0  0  0  0  0  0  0  0  0  0
   51.6520   53.7410   18.6130 O   0  0  0  0  0  0  0  0  0  0  0  0
   51.9870   52.0940   20.2700 C   0  0  2  0  0  0  0  0  0  0  0  0
   52.5100   51.2350   19.0910 C   0  0  0  0  0  0  0  0  0  0  0  0
   52.3360   49.7910   19.6130 C   0  0  2  0  0  0  0  0  0  0  0  0
   51.2660   49.8870   20.7160 C   0  0  0  0  0  0  0  0  0  0  0  0
   50.8430   51.3040   20.7910 N   0  0  0  0  0  0  0  0  0  0  0  0
   50.0270   51.4520   20.2160 H   0  0  0  0  0  0  0  0  0  0  0  0
   50.6480   51.5620   21.7460 H   0  0  0  0  0  0  0  0  0  0  0  0
   53.5680   49.3070   20.1530 O   0  0  0  0  0  0  0  0  0  0  0  0
   53.9940   48.6280   19.6130 H   0  0  0  0  0  0  0  0  0  0  0  0
   52.3680   57.3630   21.6310 C   0  0  0  0  0  0  0  0  0  0  0  0
   52.8330   56.5200   20.4410 C   0  0  0  0  0  0  0  0  0  0  0  0
   51.6710   56.3380   19.4610 C   0  0  0  0  0  0  0  0  0  0  0  0
   50.5150   55.6270   20.1680 C   0  0  0  0  0  0  0  0  0  0  0  0
   50.0510   56.4690   21.3590 C   0  0  0  0  0  0  0  0  0  0  0  0
   51.2130   56.6520   22.3380 C   0  0  0  0  0  0  0  0  0  0  0  0
   49.3720   55.4460   19.2040 C   0  0  0  0  0  0  0  0  0  0  0  0
   49.3730   56.0400   18.1390 O   0  0  0  0  0  0  0  0  0  0  0  0
   48.4450   54.7060   19.4880 O   0  0  0  0  0  0  0  0  0  0  0  0
  1  2  1  0  0  0  0
  3  1  1  0  0  0  0
  4  3  2  0  0  0  0
  5  3  1  6  0  0  0
  5  9  1  0  0  0  0
  6  7  1  0  0  0  0
  6  5  1  0  0  0  0
  7 12  1  1  0  0  0
  7  8  1  0  0  0  0
  8  9  1  0  0  0  0
  9 11  1  0  0  0  0
 10  9  1  0  0  0  0
 13 12  1  0  0  0  0
 14 19  1  0  0  0  0
 15 14  1  0  0  0  0
 16 17  1  0  0  0  0
 16 15  1  0  0  0  0
 17  1  1  0  0  0  0
 17 18  1  0  0  0  0
 18 19  1  0  0  0  0
 20 22  1  0  0  0  0
 20 17  1  0  0  0  0
 21 20  2  0  0  0  0
M  END
>  <MODEL>
4

>  <REMARK>
  Name = ZINC40479566
                            x       y       z     vdW  Elec       q    Type
                         _______ _______ _______ _____ _____    ______ ____

>  <TORSDO>
F 4

>  <minimizedAffinity>
-6.7431134580365955

$$$$
ZINC40479566
 OpenBabel10211212483D

 22 23  0  0  1  0  0  0  0  0999 V2000
   50.4130   54.6070   21.0000 N   0  0  0  0  0  0  0  0  0  0  0  0
   49.5770   54.4040   21.4480 H   0  0  0  0  0  0  0  0  0  0  0  0
   51.1640   53.6100   20.4910 C   0  0  0  0  0  0  0  0  0  0  0  0
   52.2090   53.8630   19.9300 O   0  0  0  0  0  0  0  0  0  0  0  0
   50.7060   52.1800   20.6220 C   0  0  2  0  0  0  0  0  0  0  0  0
   51.8790   51.2680   21.0610 C   0  0  0  0  0  0  0  0  0  0  0  0
   51.4460   49.8760   20.5470 C   0  0  2  0  0  0  0  0  0  0  0  0
   50.4310   50.1590   19.4240 C   0  0  0  0  0  0  0  0  0  0  0  0
   50.3210   51.6300   19.2960 N   0  0  0  0  0  0  0  0  0  0  0  0
   50.9530   51.9640   18.5840 H   0  0  0  0  0  0  0  0  0  0  0  0
   49.3730   51.8940   19.0730 H   0  0  0  0  0  0  0  0  0  0  0  0
   50.8300   49.1290   21.5990 O   0  0  0  0  0  0  0  0  0  0  0  0
   50.3040   49.6670   22.2070 H   0  0  0  0  0  0  0  0  0  0  0  0
   48.6820   57.0840   19.2400 C   0  0  0  0  0  0  0  0  0  0  0  0
   48.4790   56.7440   20.7180 C   0  0  0  0  0  0  0  0  0  0  0  0
   49.7990   56.9270   21.4690 C   0  0  0  0  0  0  0  0  0  0  0  0
   50.8580   55.9970   20.8740 C   0  0  0  0  0  0  0  0  0  0  0  0
   51.0600   56.3360   19.3950 C   0  0  0  0  0  0  0  0  0  0  0  0
   49.7400   56.1520   18.6440 C   0  0  0  0  0  0  0  0  0  0  0  0
   52.1580   56.1770   21.6120 C   0  0  0  0  0  0  0  0  0  0  0  0
   52.2470   55.8400   22.7810 O   0  0  0  0  0  0  0  0  0  0  0  0
   53.1230   56.6580   21.0420 O   0  0  0  0  0  0  0  0  0  0  0  0
  1  2  1  0  0  0  0
  3  1  1  0  0  0  0
  4  3  2  0  0  0  0
  5  3  1  6  0  0  0
  5  6  1  0  0  0  0
  7  6  1  0  0  0  0
  7 12  1  1  0  0  0
  8  7  1  0  0  0  0
  9  8  1  0  0  0  0
  9  5  1  0  0  0  0
 10  9  1  0  0  0  0
 11  9  1  0  0  0  0
 12 13  1  0  0  0  0
 14 15  1  0  0  0  0
 15 16  1  0  0  0  0
 17  1  1  0  0  0  0
 17 16  1  0  0  0  0
 17 20  1  0  0  0  0
 18 17  1  0  0  0  0
 19 14  1  0  0  0  0
 19 18  1  0  0  0  0
 20 21  1  0  0  0  0
 22 20  2  0  0  0  0
M  END
>  <MODEL>
5

>  <REMARK>
  Name = ZINC40479566
                            x       y       z     vdW  Elec       q    Type
                         _______ _______ _______ _____ _____    ______ ____

>  <TORSDO>
F 4

>  <minimizedAffinity>
-6.6822276801652567

$$$$
ZINC40479566
 OpenBabel10211212483D

 22 23  0  0  1  0  0  0  0  0999 V2000
   50.4960   51.1040   19.1260 N   0  0  0  0  0  0  0  0  0  0  0  0
   50.3530   50.3360   19.7000 H   0  0  0  0  0  0  0  0  0  0  0  0
   49.6230   51.3760   18.1340 C   0  0  0  0  0  0  0  0  0  0  0  0
   49.8000   52.3370   17.4170 O   0  0  0  0  0  0  0  0  0  0  0  0
   48.4270   50.4840   17.9180 C   0  0  2  0  0  0  0  0  0  0  0  0
   48.5810   49.1610   18.7100 C   0  0  0  0  0  0  0  0  0  0  0  0
   47.6790   48.1820   17.9250 C   0  0  2  0  0  0  0  0  0  0  0  0
   47.5500   48.7930   16.5180 C   0  0  0  0  0  0  0  0  0  0  0  0
   48.3590   50.0330   16.5050 N   0  0  0  0  0  0  0  0  0  0  0  0
   49.2850   49.8380   16.1560 H   0  0  0  0  0  0  0  0  0  0  0  0
   47.9130   50.7370   15.9360 H   0  0  0  0  0  0  0  0  0  0  0  0
   46.3950   48.0860   18.5460 O   0  0  0  0  0  0  0  0  0  0  0  0
   45.9990   48.9410   18.7650 H   0  0  0  0  0  0  0  0  0  0  0  0
   50.9780   53.1130   21.9460 C   0  0  0  0  0  0  0  0  0  0  0  0
   51.4410   51.6620   21.8050 C   0  0  0  0  0  0  0  0  0  0  0  0
   52.3890   51.5430   20.6100 C   0  0  0  0  0  0  0  0  0  0  0  0
   51.6580   51.9710   19.3350 C   0  0  0  0  0  0  0  0  0  0  0  0
   51.1940   53.4220   19.4770 C   0  0  0  0  0  0  0  0  0  0  0  0
   50.2460   53.5410   20.6720 C   0  0  0  0  0  0  0  0  0  0  0  0
   52.5900   51.8540   18.1580 C   0  0  0  0  0  0  0  0  0  0  0  0
   53.1900   52.8360   17.7560 O   0  0  0  0  0  0  0  0  0  0  0  0
   52.7460   50.7770   17.6070 O   0  0  0  0  0  0  0  0  0  0  0  0
  1 17  1  0  0  0  0
  1  2  1  0  0  0  0
  3  1  1  0  0  0  0
  4  3  2  0  0  0  0
  5  3  1  6  0  0  0
  5  6  1  0  0  0  0
  7 12  1  1  0  0  0
  7  6  1  0  0  0  0
  8  7  1  0  0  0  0
  9  8  1  0  0  0  0
  9  5  1  0  0  0  0
 10  9  1  0  0  0  0
 11  9  1  0  0  0  0
 12 13  1  0  0  0  0
 15 14  1  0  0  0  0
 16 15  1  0  0  0  0
 17 18  1  0  0  0  0
 17 16  1  0  0  0  0
 18 19  1  0  0  0  0
 19 14  1  0  0  0  0
 20 17  1  0  0  0  0
 21 20  1  0  0  0  0
 22 20  2  0  0  0  0
M  END
>  <MODEL>
6

>  <REMARK>
  Name = ZINC40479566
                            x       y       z     vdW  Elec       q    Type
                         _______ _______ _______ _____ _____    ______ ____

>  <TORSDO>
F 4

>  <minimizedAffinity>
-6.3490153121546413

$$$$
ZINC40479566
 OpenBabel10211212483D

 22 23  0  0  1  0  0  0  0  0999 V2000
   48.3220   50.9530   16.9950 N   0  0  0  0  0  0  0  0  0  0  0  0
   47.5550   51.5380   17.1030 H   0  0  0  0  0  0  0  0  0  0  0  0
   49.5530   51.3860   17.3350 C   0  0  0  0  0  0  0  0  0  0  0  0
   50.5110   50.6540   17.2010 O   0  0  0  0  0  0  0  0  0  0  0  0
   49.7380   52.7780   17.8820 C   0  0  2  0  0  0  0  0  0  0  0  0
   50.1910   52.7280   19.3620 C   0  0  0  0  0  0  0  0  0  0  0  0
   49.7300   54.0980   19.9110 C   0  0  2  0  0  0  0  0  0  0  0  0
   48.6130   54.5590   18.9570 C   0  0  0  0  0  0  0  0  0  0  0  0
   48.4370   53.4930   17.9440 N   0  0  0  0  0  0  0  0  0  0  0  0
   47.7050   52.8610   18.2310 H   0  0  0  0  0  0  0  0  0  0  0  0
   48.2180   53.8960   17.0450 H   0  0  0  0  0  0  0  0  0  0  0  0
   50.8160   55.0280   19.8950 O   0  0  0  0  0  0  0  0  0  0  0  0
   51.6280   54.6780   19.5030 H   0  0  0  0  0  0  0  0  0  0  0  0
   46.4560   48.4460   18.5630 C   0  0  0  0  0  0  0  0  0  0  0  0
   45.9040   49.4660   17.5640 C   0  0  0  0  0  0  0  0  0  0  0  0
   46.6520   49.3350   16.2360 C   0  0  0  0  0  0  0  0  0  0  0  0
   48.1420   49.6000   16.4630 C   0  0  0  0  0  0  0  0  0  0  0  0
   48.6950   48.5820   17.4620 C   0  0  0  0  0  0  0  0  0  0  0  0
   47.9460   48.7120   18.7900 C   0  0  0  0  0  0  0  0  0  0  0  0
   48.8800   49.4720   15.1560 C   0  0  0  0  0  0  0  0  0  0  0  0
   48.6070   50.2140   14.2270 O   0  0  0  0  0  0  0  0  0  0  0  0
   49.7500   48.6280   15.0260 O   0  0  0  0  0  0  0  0  0  0  0  0
  1  2  1  0  0  0  0
  1  3  1  0  0  0  0
  4  3  2  0  0  0  0
  5  3  1  1  0  0  0
  5  9  1  0  0  0  0
  5  6  1  0  0  0  0
  6  7  1  0  0  0  0
  7 12  1  6  0  0  0
  8  7  1  0  0  0  0
  9 10  1  0  0  0  0
  9  8  1  0  0  0  0
 11  9  1  0  0  0  0
 13 12  1  0  0  0  0
 14 19  1  0  0  0  0
 15 14  1  0  0  0  0
 16 17  1  0  0  0  0
 16 15  1  0  0  0  0
 17  1  1  0  0  0  0
 17 18  1  0  0  0  0
 18 19  1  0  0  0  0
 20 17  1  0  0  0  0
 21 20  2  0  0  0  0
 22 20  1  0  0  0  0
M  END
>  <MODEL>
7

>  <REMARK>
  Name = ZINC40479566
                            x       y       z     vdW  Elec       q    Type
                         _______ _______ _______ _____ _____    ______ ____

>  <TORSDO>
F 4

>  <minimizedAffinity>
-6.2428312851328709

$$$$
ZINC40479566
 OpenBabel10211212483D

 22 23  0  0  1  0  0  0  0  0999 V2000
   51.7900   54.7420   20.0890 N   0  0  0  0  0  0  0  0  0  0  0  0
   52.6800   54.7710   19.7040 H   0  0  0  0  0  0  0  0  0  0  0  0
   51.4420   55.6230   21.0490 C   0  0  0  0  0  0  0  0  0  0  0  0
   50.3300   55.5880   21.5300 O   0  0  0  0  0  0  0  0  0  0  0  0
   52.4360   56.6520   21.5230 C   0  0  2  0  0  0  0  0  0  0  0  0
   51.7730   58.0480   21.6240 C   0  0  0  0  0  0  0  0  0  0  0  0
   52.9740   59.0120   21.4900 C   0  0  2  0  0  0  0  0  0  0  0  0
   54.0700   58.1930   20.7850 C   0  0  0  0  0  0  0  0  0  0  0  0
   53.5060   56.8520   20.5120 N   0  0  0  0  0  0  0  0  0  0  0  0
   53.1160   56.8220   19.5820 H   0  0  0  0  0  0  0  0  0  0  0  0
   54.2180   56.1440   20.6150 H   0  0  0  0  0  0  0  0  0  0  0  0
   53.4180   59.4320   22.7820 O   0  0  0  0  0  0  0  0  0  0  0  0
   52.8060   59.2140   23.4990 H   0  0  0  0  0  0  0  0  0  0  0  0
   52.2440   51.2860   20.3640 C   0  0  0  0  0  0  0  0  0  0  0  0
   51.5900   52.1790   21.4210 C   0  0  0  0  0  0  0  0  0  0  0  0
   50.3760   52.8840   20.8130 C   0  0  0  0  0  0  0  0  0  0  0  0
   50.8240   53.7420   19.6280 C   0  0  0  0  0  0  0  0  0  0  0  0
   51.4790   52.8490   18.5720 C   0  0  0  0  0  0  0  0  0  0  0  0
   52.6930   52.1450   19.1800 C   0  0  0  0  0  0  0  0  0  0  0  0
   49.6300   54.4360   19.0290 C   0  0  0  0  0  0  0  0  0  0  0  0
   49.7890   55.3630   18.2520 O   0  0  0  0  0  0  0  0  0  0  0  0
   48.5030   54.0720   19.3200 O   0  0  0  0  0  0  0  0  0  0  0  0
  1  3  1  0  0  0  0
  2  1  1  0  0  0  0
  3  4  2  0  0  0  0
  5  3  1  6  0  0  0
  5  6  1  0  0  0  0
  7  6  1  0  0  0  0
  7 12  1  1  0  0  0
  8  7  1  0  0  0  0
  9 11  1  0  0  0  0
  9  8  1  0  0  0  0
  9  5  1  0  0  0  0
 10  9  1  0  0  0  0
 12 13  1  0  0  0  0
 14 15  1  0  0  0  0
 16 15  1  0  0  0  0
 17  1  1  0  0  0  0
 17 16  1  0  0  0  0
 18 19  1  0  0  0  0
 18 17  1  0  0  0  0
 19 14  1  0  0  0  0
 20 22  1  0  0  0  0
 20 17  1  0  0  0  0
 21 20  2  0  0  0  0
M  END
>  <MODEL>
8

>  <REMARK>
  Name = ZINC40479566
                            x       y       z     vdW  Elec       q    Type
                         _______ _______ _______ _____ _____    ______ ____

>  <TORSDO>
F 4

>  <minimizedAffinity>
-6.2128069415511122

$$$$
ZINC40479566
 OpenBabel10211212483D

 22 23  0  0  1  0  0  0  0  0999 V2000
   50.2140   51.7450   19.1880 N   0  0  0  0  0  0  0  0  0  0  0  0
   49.2780   51.9750   19.3050 H   0  0  0  0  0  0  0  0  0  0  0  0
   50.6070   51.0540   18.0990 C   0  0  0  0  0  0  0  0  0  0  0  0
   51.7760   50.7670   17.9530 O   0  0  0  0  0  0  0  0  0  0  0  0
   49.5930   50.6380   17.0650 C   0  0  2  0  0  0  0  0  0  0  0  0
   48.5100   49.7270   17.6960 C   0  0  0  0  0  0  0  0  0  0  0  0
   47.9830   48.9260   16.4830 C   0  0  2  0  0  0  0  0  0  0  0  0
   49.1100   48.9920   15.4360 C   0  0  0  0  0  0  0  0  0  0  0  0
   50.2200   49.7650   16.0380 N   0  0  0  0  0  0  0  0  0  0  0  0
   50.8830   49.1400   16.4710 H   0  0  0  0  0  0  0  0  0  0  0  0
   50.6770   50.3280   15.3360 H   0  0  0  0  0  0  0  0  0  0  0  0
   46.7910   49.5270   15.9720 O   0  0  0  0  0  0  0  0  0  0  0  0
   46.6850   50.4580   16.2130 H   0  0  0  0  0  0  0  0  0  0  0  0
   51.0300   55.0630   19.9310 C   0  0  0  0  0  0  0  0  0  0  0  0
   49.9160   54.2550   20.6020 C   0  0  0  0  0  0  0  0  0  0  0  0
   50.5160   53.0100   21.2590 C   0  0  0  0  0  0  0  0  0  0  0  0
   51.1990   52.1490   20.1940 C   0  0  0  0  0  0  0  0  0  0  0  0
   52.3110   52.9580   19.5230 C   0  0  0  0  0  0  0  0  0  0  0  0
   51.7120   54.2020   18.8650 C   0  0  0  0  0  0  0  0  0  0  0  0
   51.7880   50.9230   20.8410 C   0  0  0  0  0  0  0  0  0  0  0  0
   51.0550   50.0580   21.2890 O   0  0  0  0  0  0  0  0  0  0  0  0
   52.9990   50.7950   20.9160 O   0  0  0  0  0  0  0  0  0  0  0  0
  1  2  1  0  0  0  0
  1 17  1  0  0  0  0
  3  1  1  0  0  0  0
  4  3  2  0  0  0  0
  5  6  1  0  0  0  0
  5  3  1  1  0  0  0
  7 12  1  6  0  0  0
  7  6  1  0  0  0  0
  8  9  1  0  0  0  0
  8  7  1  0  0  0  0
  9 10  1  0  0  0  0
  9  5  1  0  0  0  0
 11  9  1  0  0  0  0
 12 13  1  0  0  0  0
 14 15  1  0  0  0  0
 15 16  1  0  0  0  0
 17 20  1  0  0  0  0
 17 16  1  0  0  0  0
 18 17  1  0  0  0  0
 19 18  1  0  0  0  0
 19 14  1  0  0  0  0
 20 22  2  0  0  0  0
 20 21  1  0  0  0  0
M  END
>  <MODEL>
9

>  <REMARK>
  Name = ZINC40479566
                            x       y       z     vdW  Elec       q    Type
                         _______ _______ _______ _____ _____    ______ ____

>  <TORSDO>
F 4

>  <minimizedAffinity>
-6.1575738296584523

$$$$
ZINC12394796
 OpenBabel10211212493D

 21 22  0  0  0  0  0  0  0  0999 V2000
   48.7380   54.4710   19.0070 C   0  0  0  0  0  0  0  0  0  0  0  0
   48.8570   55.4400   20.0070 C   0  0  0  0  0  0  0  0  0  0  0  0
   49.9370   55.1840   20.6990 N   0  0  0  0  0  0  0  0  0  0  0  0
   50.5410   54.0410   20.1600 N   0  0  0  0  0  0  0  0  0  0  0  0
   49.7850   53.6220   19.1220 C   0  0  0  0  0  0  0  0  0  0  0  0
   50.0600   52.4250   18.2500 C   0  0  0  0  0  0  0  0  0  0  0  0
   51.4290   52.3540   17.9710 F   0  0  0  0  0  0  0  0  0  0  0  0
   49.3460   52.5470   17.0520 F   0  0  0  0  0  0  0  0  0  0  0  0
   49.6590   51.2610   18.9150 F   0  0  0  0  0  0  0  0  0  0  0  0
   47.9040   56.5830   20.2470 C   0  0  0  0  0  0  0  0  0  0  0  0
   48.4220   57.7780   21.0510 C   0  0  0  0  0  0  0  0  0  0  0  0
   48.1980   57.9080   19.5430 C   0  0  0  0  0  0  0  0  0  0  0  0
   51.7740   53.4110   20.6360 C   0  0  0  0  0  0  0  0  0  0  0  0
   51.4400   52.3970   21.7320 C   0  0  0  0  0  0  0  0  0  0  0  0
   51.8560   51.0190   21.2860 C   0  0  0  0  0  0  0  0  0  0  0  0
   52.9590   50.8570   20.6360 N   0  0  0  0  0  0  0  0  0  0  0  0
   51.0580   49.9330   21.5720 N   0  0  0  0  0  0  0  0  0  0  0  0
   50.7210   49.8020   22.4710 H   0  0  0  0  0  0  0  0  0  0  0  0
   50.8340   49.2990   20.8730 H   0  0  0  0  0  0  0  0  0  0  0  0
   53.3500   49.5620   20.2170 O   0  0  0  0  0  0  0  0  0  0  0  0
   54.1080   49.5550   19.6150 H   0  0  0  0  0  0  0  0  0  0  0  0
  1  5  2  0  0  0  0
  1  2  1  0  0  0  0
  2 10  1  0  0  0  0
  2  3  2  0  0  0  0
  4 13  1  0  0  0  0
  4  3  1  0  0  0  0
  5  4  1  0  0  0  0
  6  9  1  0  0  0  0
  6  5  1  0  0  0  0
  7  6  1  0  0  0  0
  8  6  1  0  0  0  0
 10 11  1  0  0  0  0
 12 10  1  0  0  0  0
 12 11  1  0  0  0  0
 13 14  1  0  0  0  0
 15 17  1  0  0  0  0
 15 14  1  0  0  0  0
 16 15  2  0  0  0  0
 17 18  1  0  0  0  0
 19 17  1  0  0  0  0
 20 16  1  0  0  0  0
 21 20  1  0  0  0  0
M  END
>  <MODEL>
1

>  <REMARK>
  Name = ZINC12394796
                            x       y       z     vdW  Elec       q    Type
                         _______ _______ _______ _____ _____    ______ ____

>  <TORSDO>
F 7

>  <minimizedAffinity>
-7.1876372824062944

$$$$
ZINC12394796
 OpenBabel10211212493D

 21 22  0  0  0  0  0  0  0  0999 V2000
   46.5270   50.3090   17.1570 C   0  0  0  0  0  0  0  0  0  0  0  0
   46.2700   49.1160   17.8390 C   0  0  0  0  0  0  0  0  0  0  0  0
   47.3990   48.6770   18.3350 N   0  0  0  0  0  0  0  0  0  0  0  0
   48.4110   49.5780   17.9820 N   0  0  0  0  0  0  0  0  0  0  0  0
   47.8500   50.5710   17.2600 C   0  0  0  0  0  0  0  0  0  0  0  0
   48.5690   51.7580   16.6730 C   0  0  0  0  0  0  0  0  0  0  0  0
   47.6470   52.5930   16.0340 F   0  0  0  0  0  0  0  0  0  0  0  0
   49.5190   51.3160   15.7440 F   0  0  0  0  0  0  0  0  0  0  0  0
   49.2110   52.4670   17.6940 F   0  0  0  0  0  0  0  0  0  0  0  0
   44.9250   48.4500   17.9800 C   0  0  0  0  0  0  0  0  0  0  0  0
   44.7620   47.0530   17.3770 C   0  0  0  0  0  0  0  0  0  0  0  0
   44.8340   47.2280   18.8950 C   0  0  0  0  0  0  0  0  0  0  0  0
   49.8280   49.4650   18.3360 C   0  0  0  0  0  0  0  0  0  0  0  0
   49.9600   49.2170   19.8400 C   0  0  0  0  0  0  0  0  0  0  0  0
   51.3710   49.5130   20.2770 C   0  0  0  0  0  0  0  0  0  0  0  0
   51.6370   50.6120   20.9010 N   0  0  0  0  0  0  0  0  0  0  0  0
   52.3780   48.6120   20.0100 N   0  0  0  0  0  0  0  0  0  0  0  0
   52.4940   47.8320   20.5740 H   0  0  0  0  0  0  0  0  0  0  0  0
   52.9710   48.7570   19.2560 H   0  0  0  0  0  0  0  0  0  0  0  0
   52.9630   50.8900   21.3120 O   0  0  0  0  0  0  0  0  0  0  0  0
   53.6410   50.5000   20.7430 H   0  0  0  0  0  0  0  0  0  0  0  0
  1  5  2  0  0  0  0
  1  2  1  0  0  0  0
  2 10  1  0  0  0  0
  2  3  2  0  0  0  0
  4  3  1  0  0  0  0
  4 13  1  0  0  0  0
  5  4  1  0  0  0  0
  6  5  1  0  0  0  0
  6  9  1  0  0  0  0
  7  6  1  0  0  0  0
  8  6  1  0  0  0  0
 10 12  1  0  0  0  0
 11 10  1  0  0  0  0
 11 12  1  0  0  0  0
 13 14  1  0  0  0  0
 14 15  1  0  0  0  0
 15 16  2  0  0  0  0
 16 20  1  0  0  0  0
 17 15  1  0  0  0  0
 17 18  1  0  0  0  0
 19 17  1  0  0  0  0
 21 20  1  0  0  0  0
M  END
>  <MODEL>
2

>  <REMARK>
  Name = ZINC12394796
                            x       y       z     vdW  Elec       q    Type
                         _______ _______ _______ _____ _____    ______ ____

>  <TORSDO>
F 7

>  <minimizedAffinity>
-7.1117079809667327

$$$$
ZINC12394796
 OpenBabel10211212493D

 21 22  0  0  0  0  0  0  0  0999 V2000
   50.8850   56.6350   20.4460 C   0  0  0  0  0  0  0  0  0  0  0  0
   52.0140   56.3250   21.2090 C   0  0  0  0  0  0  0  0  0  0  0  0
   52.1310   55.0220   21.2550 N   0  0  0  0  0  0  0  0  0  0  0  0
   51.0770   54.4620   20.5230 N   0  0  0  0  0  0  0  0  0  0  0  0
   50.3260   55.4730   20.0360 C   0  0  0  0  0  0  0  0  0  0  0  0
   49.0880   55.3320   19.1890 C   0  0  0  0  0  0  0  0  0  0  0  0
   48.0840   54.6990   19.9300 F   0  0  0  0  0  0  0  0  0  0  0  0
   49.3830   54.5660   18.0550 F   0  0  0  0  0  0  0  0  0  0  0  0
   48.6470   56.5990   18.7930 F   0  0  0  0  0  0  0  0  0  0  0  0
   52.9380   57.3180   21.8650 C   0  0  0  0  0  0  0  0  0  0  0  0
   54.1320   57.8180   21.0490 C   0  0  0  0  0  0  0  0  0  0  0  0
   52.9450   58.7460   21.3160 C   0  0  0  0  0  0  0  0  0  0  0  0
   50.8330   53.0330   20.3190 C   0  0  0  0  0  0  0  0  0  0  0  0
   51.2210   52.2630   21.5830 C   0  0  0  0  0  0  0  0  0  0  0  0
   51.7560   50.9070   21.2020 C   0  0  0  0  0  0  0  0  0  0  0  0
   52.8900   50.8080   20.5930 N   0  0  0  0  0  0  0  0  0  0  0  0
   51.0340   49.7730   21.5030 N   0  0  0  0  0  0  0  0  0  0  0  0
   51.3640   48.9020   21.2350 H   0  0  0  0  0  0  0  0  0  0  0  0
   50.1950   49.8460   21.9850 H   0  0  0  0  0  0  0  0  0  0  0  0
   53.3930   49.5330   20.2360 O   0  0  0  0  0  0  0  0  0  0  0  0
   53.2430   48.8500   20.9040 H   0  0  0  0  0  0  0  0  0  0  0  0
  1  2  1  0  0  0  0
  2  3  2  0  0  0  0
  2 10  1  0  0  0  0
  4  3  1  0  0  0  0
  5  1  2  0  0  0  0
  5  4  1  0  0  0  0
  6  7  1  0  0  0  0
  6  5  1  0  0  0  0
  8  6  1  0  0  0  0
  9  6  1  0  0  0  0
 11 12  1  0  0  0  0
 11 10  1  0  0  0  0
 12 10  1  0  0  0  0
 13  4  1  0  0  0  0
 13 14  1  0  0  0  0
 15 17  1  0  0  0  0
 15 14  1  0  0  0  0
 16 15  2  0  0  0  0
 17 19  1  0  0  0  0
 18 17  1  0  0  0  0
 20 16  1  0  0  0  0
 20 21  1  0  0  0  0
M  END
>  <MODEL>
3

>  <REMARK>
  Name = ZINC12394796
                            x       y       z     vdW  Elec       q    Type
                         _______ _______ _______ _____ _____    ______ ____

>  <TORSDO>
F 7

>  <minimizedAffinity>
-7.0720427865757349

$$$$
ZINC12394796
 OpenBabel10211212493D

 21 22  0  0  0  0  0  0  0  0999 V2000
   50.1400   55.6380   21.2990 C   0  0  0  0  0  0  0  0  0  0  0  0
   49.4140   56.1050   20.2000 C   0  0  0  0  0  0  0  0  0  0  0  0
   49.3390   55.1410   19.3190 N   0  0  0  0  0  0  0  0  0  0  0  0
   50.0170   54.0280   19.8310 N   0  0  0  0  0  0  0  0  0  0  0  0
   50.4990   54.3580   21.0470 C   0  0  0  0  0  0  0  0  0  0  0  0
   51.2960   53.4620   21.9610 C   0  0  0  0  0  0  0  0  0  0  0  0
   50.5020   52.3820   22.3630 F   0  0  0  0  0  0  0  0  0  0  0  0
   51.7030   54.1870   23.0860 F   0  0  0  0  0  0  0  0  0  0  0  0
   52.4210   52.9850   21.2810 F   0  0  0  0  0  0  0  0  0  0  0  0
   48.8200   57.4830   20.0550 C   0  0  0  0  0  0  0  0  0  0  0  0
   47.3650   57.6750   20.4870 C   0  0  0  0  0  0  0  0  0  0  0  0
   48.4980   58.2530   21.3360 C   0  0  0  0  0  0  0  0  0  0  0  0
   50.1730   52.7330   19.1650 C   0  0  0  0  0  0  0  0  0  0  0  0
   51.4380   52.7510   18.3030 C   0  0  0  0  0  0  0  0  0  0  0  0
   51.9400   51.3430   18.1170 C   0  0  0  0  0  0  0  0  0  0  0  0
   52.7420   50.8230   18.9850 N   0  0  0  0  0  0  0  0  0  0  0  0
   51.5440   50.6100   17.0200 N   0  0  0  0  0  0  0  0  0  0  0  0
   50.9570   51.0070   16.3580 H   0  0  0  0  0  0  0  0  0  0  0  0
   51.8530   49.6970   16.9090 H   0  0  0  0  0  0  0  0  0  0  0  0
   53.2140   49.5000   18.8100 O   0  0  0  0  0  0  0  0  0  0  0  0
   53.9320   49.4200   18.1670 H   0  0  0  0  0  0  0  0  0  0  0  0
  2  1  1  0  0  0  0
  3  4  1  0  0  0  0
  3  2  2  0  0  0  0
  4  5  1  0  0  0  0
  5  1  2  0  0  0  0
  5  6  1  0  0  0  0
  6  7  1  0  0  0  0
  6  8  1  0  0  0  0
  9  6  1  0  0  0  0
 10  2  1  0  0  0  0
 10 11  1  0  0  0  0
 10 12  1  0  0  0  0
 11 12  1  0  0  0  0
 13  4  1  0  0  0  0
 14 13  1  0  0  0  0
 15 14  1  0  0  0  0
 15 16  2  0  0  0  0
 17 15  1  0  0  0  0
 18 17  1  0  0  0  0
 19 17  1  0  0  0  0
 20 16  1  0  0  0  0
 21 20  1  0  0  0  0
M  END
>  <MODEL>
4

>  <REMARK>
  Name = ZINC12394796
                            x       y       z     vdW  Elec       q    Type
                         _______ _______ _______ _____ _____    ______ ____

>  <TORSDO>
F 7

>  <minimizedAffinity>
-7.0717309898189331

$$$$
ZINC12394796
 OpenBabel10211212493D

 21 22  0  0  0  0  0  0  0  0999 V2000
   47.1800   49.1050   16.0150 C   0  0  0  0  0  0  0  0  0  0  0  0
   46.5630   49.1190   17.2690 C   0  0  0  0  0  0  0  0  0  0  0  0
   47.4670   49.4160   18.1670 N   0  0  0  0  0  0  0  0  0  0  0  0
   48.6910   49.5990   17.5110 N   0  0  0  0  0  0  0  0  0  0  0  0
   48.4880   49.4030   16.1910 C   0  0  0  0  0  0  0  0  0  0  0  0
   49.5320   49.4990   15.1080 C   0  0  0  0  0  0  0  0  0  0  0  0
   50.5000   50.4390   15.4750 F   0  0  0  0  0  0  0  0  0  0  0  0
   48.9270   49.8960   13.9100 F   0  0  0  0  0  0  0  0  0  0  0  0
   50.1380   48.2500   14.9330 F   0  0  0  0  0  0  0  0  0  0  0  0
   45.1060   48.8410   17.5400 C   0  0  0  0  0  0  0  0  0  0  0  0
   44.5290   47.5250   17.0150 C   0  0  0  0  0  0  0  0  0  0  0  0
   44.7730   47.7100   18.5140 C   0  0  0  0  0  0  0  0  0  0  0  0
   49.9650   49.9440   18.1450 C   0  0  0  0  0  0  0  0  0  0  0  0
   50.0980   49.1880   19.4690 C   0  0  0  0  0  0  0  0  0  0  0  0
   51.4320   49.5020   20.0950 C   0  0  0  0  0  0  0  0  0  0  0  0
   51.5860   50.5880   20.7760 N   0  0  0  0  0  0  0  0  0  0  0  0
   52.4880   48.6300   19.9410 N   0  0  0  0  0  0  0  0  0  0  0  0
   52.7040   48.2820   19.0630 H   0  0  0  0  0  0  0  0  0  0  0  0
   53.0150   48.3660   20.7110 H   0  0  0  0  0  0  0  0  0  0  0  0
   52.8400   50.8830   21.3650 O   0  0  0  0  0  0  0  0  0  0  0  0
   53.4410   50.1260   21.4110 H   0  0  0  0  0  0  0  0  0  0  0  0
  1  5  2  0  0  0  0
  1  2  1  0  0  0  0
  2 10  1  0  0  0  0
  2  3  2  0  0  0  0
  4 13  1  0  0  0  0
  4  3  1  0  0  0  0
  5  4  1  0  0  0  0
  6  7  1  0  0  0  0
  6  5  1  0  0  0  0
  8  6  1  0  0  0  0
  9  6  1  0  0  0  0
 10 12  1  0  0  0  0
 11 10  1  0  0  0  0
 11 12  1  0  0  0  0
 13 14  1  0  0  0  0
 14 15  1  0  0  0  0
 15 16  2  0  0  0  0
 16 20  1  0  0  0  0
 17 15  1  0  0  0  0
 17 19  1  0  0  0  0
 18 17  1  0  0  0  0
 20 21  1  0  0  0  0
M  END
>  <MODEL>
5

>  <REMARK>
  Name = ZINC12394796
                            x       y       z     vdW  Elec       q    Type
                         _______ _______ _______ _____ _____    ______ ____

>  <TORSDO>
F 7

>  <minimizedAffinity>
-6.9295161267411718

$$$$
ZINC12394796
 OpenBabel10211212493D

 21 22  0  0  0  0  0  0  0  0999 V2000
   48.5140   54.0620   18.1620 C   0  0  0  0  0  0  0  0  0  0  0  0
   49.3330   55.0760   18.6670 C   0  0  0  0  0  0  0  0  0  0  0  0
   50.5430   54.5970   18.8020 N   0  0  0  0  0  0  0  0  0  0  0  0
   50.5320   53.2600   18.3870 N   0  0  0  0  0  0  0  0  0  0  0  0
   49.2760   52.9550   17.9990 C   0  0  0  0  0  0  0  0  0  0  0  0
   48.8060   51.6220   17.4770 C   0  0  0  0  0  0  0  0  0  0  0  0
   47.4260   51.6700   17.2500 F   0  0  0  0  0  0  0  0  0  0  0  0
   49.0890   50.6260   18.4190 F   0  0  0  0  0  0  0  0  0  0  0  0
   49.4660   51.3310   16.2780 F   0  0  0  0  0  0  0  0  0  0  0  0
   48.8960   56.4800   18.9990 C   0  0  0  0  0  0  0  0  0  0  0  0
   48.0650   56.6800   20.2680 C   0  0  0  0  0  0  0  0  0  0  0  0
   49.5230   57.1430   20.2270 C   0  0  0  0  0  0  0  0  0  0  0  0
   51.6820   52.3520   18.3740 C   0  0  0  0  0  0  0  0  0  0  0  0
   52.3970   52.4140   19.7250 C   0  0  0  0  0  0  0  0  0  0  0  0
   52.5460   51.0220   20.2800 C   0  0  0  0  0  0  0  0  0  0  0  0
   52.7220   50.0230   19.4800 N   0  0  0  0  0  0  0  0  0  0  0  0
   52.4930   50.8130   21.6400 N   0  0  0  0  0  0  0  0  0  0  0  0
   52.3830   49.9150   21.9890 H   0  0  0  0  0  0  0  0  0  0  0  0
   52.5680   51.5640   22.2490 H   0  0  0  0  0  0  0  0  0  0  0  0
   52.8630   48.7140   20.0010 O   0  0  0  0  0  0  0  0  0  0  0  0
   52.7050   48.0130   19.3530 H   0  0  0  0  0  0  0  0  0  0  0  0
  1  2  1  0  0  0  0
  2  3  2  0  0  0  0
  2 10  1  0  0  0  0
  4  3  1  0  0  0  0
  5  1  2  0  0  0  0
  5  4  1  0  0  0  0
  6  5  1  0  0  0  0
  6  8  1  0  0  0  0
  7  6  1  0  0  0  0
  9  6  1  0  0  0  0
 10 12  1  0  0  0  0
 10 11  1  0  0  0  0
 12 11  1  0  0  0  0
 13  4  1  0  0  0  0
 13 14  1  0  0  0  0
 14 15  1  0  0  0  0
 15 17  1  0  0  0  0
 16 20  1  0  0  0  0
 16 15  2  0  0  0  0
 17 18  1  0  0  0  0
 17 19  1  0  0  0  0
 21 20  1  0  0  0  0
M  END
>  <MODEL>
6

>  <REMARK>
  Name = ZINC12394796
                            x       y       z     vdW  Elec       q    Type
                         _______ _______ _______ _____ _____    ______ ____

>  <TORSDO>
F 7

>  <minimizedAffinity>
-6.9192796224634163

$$$$
ZINC12394796
 OpenBabel10211212493D

 21 22  0  0  0  0  0  0  0  0999 V2000
   48.9010   54.2260   18.0740 C   0  0  0  0  0  0  0  0  0  0  0  0
   49.9830   54.4820   18.9210 C   0  0  0  0  0  0  0  0  0  0  0  0
   50.7110   53.3970   18.9950 N   0  0  0  0  0  0  0  0  0  0  0  0
   50.1140   52.4150   18.1950 N   0  0  0  0  0  0  0  0  0  0  0  0
   49.0050   52.9480   17.6410 C   0  0  0  0  0  0  0  0  0  0  0  0
   48.0530   52.2460   16.7070 C   0  0  0  0  0  0  0  0  0  0  0  0
   48.7790   51.5830   15.7120 F   0  0  0  0  0  0  0  0  0  0  0  0
   47.2020   53.1870   16.1140 F   0  0  0  0  0  0  0  0  0  0  0  0
   47.2920   51.3190   17.4270 F   0  0  0  0  0  0  0  0  0  0  0  0
   50.2630   55.7830   19.6290 C   0  0  0  0  0  0  0  0  0  0  0  0
   49.2300   56.2700   20.6470 C   0  0  0  0  0  0  0  0  0  0  0  0
   50.5750   55.7210   21.1240 C   0  0  0  0  0  0  0  0  0  0  0  0
   50.6060   51.0500   17.9940 C   0  0  0  0  0  0  0  0  0  0  0  0
   50.1170   50.1580   19.1370 C   0  0  0  0  0  0  0  0  0  0  0  0
   51.2940   49.4660   19.7740 C   0  0  0  0  0  0  0  0  0  0  0  0
   52.4910   49.9100   19.5740 N   0  0  0  0  0  0  0  0  0  0  0  0
   51.0950   48.3580   20.5680 N   0  0  0  0  0  0  0  0  0  0  0  0
   50.3270   48.3170   21.1580 H   0  0  0  0  0  0  0  0  0  0  0  0
   51.7230   47.6190   20.5360 H   0  0  0  0  0  0  0  0  0  0  0  0
   53.5970   49.2600   20.1720 O   0  0  0  0  0  0  0  0  0  0  0  0
   54.1090   49.8230   20.7680 H   0  0  0  0  0  0  0  0  0  0  0  0
  1  2  1  0  0  0  0
  2  3  2  0  0  0  0
  2 10  1  0  0  0  0
  4  3  1  0  0  0  0
  5  1  2  0  0  0  0
  5  4  1  0  0  0  0
  6  9  1  0  0  0  0
  6  5  1  0  0  0  0
  7  6  1  0  0  0  0
  8  6  1  0  0  0  0
 10 11  1  0  0  0  0
 10 12  1  0  0  0  0
 11 12  1  0  0  0  0
 13  4  1  0  0  0  0
 13 14  1  0  0  0  0
 14 15  1  0  0  0  0
 15 17  1  0  0  0  0
 16 15  2  0  0  0  0
 16 20  1  0  0  0  0
 17 18  1  0  0  0  0
 19 17  1  0  0  0  0
 20 21  1  0  0  0  0
M  END
>  <MODEL>
7

>  <REMARK>
  Name = ZINC12394796
                            x       y       z     vdW  Elec       q    Type
                         _______ _______ _______ _____ _____    ______ ____

>  <TORSDO>
F 7

>  <minimizedAffinity>
-6.9131303991062705

$$$$
ZINC12394796
 OpenBabel10211212493D

 21 22  0  0  0  0  0  0  0  0999 V2000
   48.8230   54.7070   18.7350 C   0  0  0  0  0  0  0  0  0  0  0  0
   48.7880   53.4150   18.2040 C   0  0  0  0  0  0  0  0  0  0  0  0
   49.8080   52.7480   18.6810 N   0  0  0  0  0  0  0  0  0  0  0  0
   50.5260   53.5980   19.5320 N   0  0  0  0  0  0  0  0  0  0  0  0
   49.9010   54.7950   19.5480 C   0  0  0  0  0  0  0  0  0  0  0  0
   50.3280   56.0100   20.3300 C   0  0  0  0  0  0  0  0  0  0  0  0
   49.3740   57.0210   20.1790 F   0  0  0  0  0  0  0  0  0  0  0  0
   51.5650   56.4600   19.8540 F   0  0  0  0  0  0  0  0  0  0  0  0
   50.4440   55.6760   21.6840 F   0  0  0  0  0  0  0  0  0  0  0  0
   47.7530   52.8800   17.2470 C   0  0  0  0  0  0  0  0  0  0  0  0
   48.2510   52.0640   16.0520 C   0  0  0  0  0  0  0  0  0  0  0  0
   47.5380   51.3670   17.2130 C   0  0  0  0  0  0  0  0  0  0  0  0
   51.7390   53.2500   20.2740 C   0  0  0  0  0  0  0  0  0  0  0  0
   51.3770   52.3300   21.4410 C   0  0  0  0  0  0  0  0  0  0  0  0
   51.8400   50.9280   21.1390 C   0  0  0  0  0  0  0  0  0  0  0  0
   52.9500   50.7360   20.5080 N   0  0  0  0  0  0  0  0  0  0  0  0
   51.0780   49.8510   21.5350 N   0  0  0  0  0  0  0  0  0  0  0  0
   50.6460   49.2920   20.8710 H   0  0  0  0  0  0  0  0  0  0  0  0
   50.9740   49.6510   22.4780 H   0  0  0  0  0  0  0  0  0  0  0  0
   53.3850   49.4190   20.2240 O   0  0  0  0  0  0  0  0  0  0  0  0
   54.2990   49.2410   20.4870 H   0  0  0  0  0  0  0  0  0  0  0  0
  1  5  2  0  0  0  0
  2  3  2  0  0  0  0
  2  1  1  0  0  0  0
  3  4  1  0  0  0  0
  4  5  1  0  0  0  0
  4 13  1  0  0  0  0
  5  6  1  0  0  0  0
  6  9  1  0  0  0  0
  7  6  1  0  0  0  0
  8  6  1  0  0  0  0
 10  2  1  0  0  0  0
 11 12  1  0  0  0  0
 11 10  1  0  0  0  0
 12 10  1  0  0  0  0
 13 14  1  0  0  0  0
 15 14  1  0  0  0  0
 15 17  1  0  0  0  0
 16 15  2  0  0  0  0
 17 19  1  0  0  0  0
 18 17  1  0  0  0  0
 20 21  1  0  0  0  0
 20 16  1  0  0  0  0
M  END
>  <MODEL>
8

>  <REMARK>
  Name = ZINC12394796
                            x       y       z     vdW  Elec       q    Type
                         _______ _______ _______ _____ _____    ______ ____

>  <TORSDO>
F 7

>  <minimizedAffinity>
-6.8329944541709935

$$$$
ZINC12394796
 OpenBabel10211212493D

 21 22  0  0  0  0  0  0  0  0999 V2000
   50.2410   57.2760   20.7800 C   0  0  0  0  0  0  0  0  0  0  0  0
   49.1730   56.4520   20.4120 C   0  0  0  0  0  0  0  0  0  0  0  0
   49.5360   55.2080   20.5920 N   0  0  0  0  0  0  0  0  0  0  0  0
   50.8480   55.2010   21.0810 N   0  0  0  0  0  0  0  0  0  0  0  0
   51.2580   56.4830   21.1880 C   0  0  0  0  0  0  0  0  0  0  0  0
   52.6070   56.9460   21.6740 C   0  0  0  0  0  0  0  0  0  0  0  0
   53.5890   56.5750   20.7490 F   0  0  0  0  0  0  0  0  0  0  0  0
   52.8850   56.3560   22.9120 F   0  0  0  0  0  0  0  0  0  0  0  0
   52.6000   58.3390   21.8120 F   0  0  0  0  0  0  0  0  0  0  0  0
   47.8350   56.9170   19.8960 C   0  0  0  0  0  0  0  0  0  0  0  0
   47.1760   58.1000   20.6060 C   0  0  0  0  0  0  0  0  0  0  0  0
   47.7780   58.2830   19.2120 C   0  0  0  0  0  0  0  0  0  0  0  0
   51.6360   54.0140   21.4180 C   0  0  0  0  0  0  0  0  0  0  0  0
   50.6990   52.8240   21.6340 C   0  0  0  0  0  0  0  0  0  0  0  0
   51.4510   51.5410   21.3880 C   0  0  0  0  0  0  0  0  0  0  0  0
   52.6050   51.5690   20.8110 N   0  0  0  0  0  0  0  0  0  0  0  0
   50.9060   50.3380   21.7800 N   0  0  0  0  0  0  0  0  0  0  0  0
   50.6340   49.6890   21.1140 H   0  0  0  0  0  0  0  0  0  0  0  0
   50.7950   50.1400   22.7230 H   0  0  0  0  0  0  0  0  0  0  0  0
   53.3120   50.3640   20.5810 O   0  0  0  0  0  0  0  0  0  0  0  0
   52.9380   49.5960   21.0350 H   0  0  0  0  0  0  0  0  0  0  0  0
  1  5  2  0  0  0  0
  2  3  2  0  0  0  0
  2  1  1  0  0  0  0
  3  4  1  0  0  0  0
  4  5  1  0  0  0  0
  4 13  1  0  0  0  0
  5  6  1  0  0  0  0
  6  9  1  0  0  0  0
  6  8  1  0  0  0  0
  7  6  1  0  0  0  0
 10  2  1  0  0  0  0
 10 11  1  0  0  0  0
 12 10  1  0  0  0  0
 12 11  1  0  0  0  0
 13 14  1  0  0  0  0
 15 14  1  0  0  0  0
 15 17  1  0  0  0  0
 16 15  2  0  0  0  0
 17 19  1  0  0  0  0
 18 17  1  0  0  0  0
 20 16  1  0  0  0  0
 20 21  1  0  0  0  0
M  END
>  <MODEL>
9

>  <REMARK>
  Name = ZINC12394796
                            x       y       z     vdW  Elec       q    Type
                         _______ _______ _______ _____ _____    ______ ____

>  <TORSDO>
F 7

>  <minimizedAffinity>
-6.7320980783809024

$$$$
ZINC50986550
 OpenBabel10211212503D

 23 24  0  0  1  0  0  0  0  0999 V2000
   51.2680   51.4870   19.3440 N   0  0  0  0  0  0  0  0  0  0  0  0
   50.9840   50.2120   18.9070 C   0  0  1  0  0  0  0  0  0  0  0  0
   51.3070   49.0930   19.4680 N   0  0  0  0  0  0  0  0  0  0  0  0
   51.0470   48.2530   19.0580 H   0  0  0  0  0  0  0  0  0  0  0  0
   51.8080   49.0940   20.2980 H   0  0  0  0  0  0  0  0  0  0  0  0
   50.2050   50.4160   17.6220 C   0  0  2  0  0  0  0  0  0  0  0  0
   50.1460   51.8770   17.4730 N   0  0  0  0  0  0  0  0  0  0  0  0
   49.7180   52.3590   16.7480 H   0  0  0  0  0  0  0  0  0  0  0  0
   50.7590   52.4080   18.4720 C   0  0  2  0  0  0  0  0  0  0  0  0
   50.9040   53.8960   18.6600 C   0  0  0  0  0  0  0  0  0  0  0  0
   48.8170   49.8400   17.7410 C   0  0  0  0  0  0  0  0  0  0  0  0
   48.4750   49.0840   18.8450 C   0  0  0  0  0  0  0  0  0  0  0  0
   47.2050   48.5540   18.9580 C   0  0  0  0  0  0  0  0  0  0  0  0
   46.2670   48.7810   17.9590 C   0  0  0  0  0  0  0  0  0  0  0  0
   46.6070   49.5390   16.8500 C   0  0  0  0  0  0  0  0  0  0  0  0
   47.8820   50.0740   16.7420 C   0  0  0  0  0  0  0  0  0  0  0  0
   45.0180   48.2600   18.0690 O   0  0  0  0  0  0  0  0  0  0  0  0
   44.8100   47.2800   19.0900 C   0  0  0  0  0  0  0  0  0  0  0  0
   48.2160   50.8230   15.6590 O   0  0  0  0  0  0  0  0  0  0  0  0
   48.3570   50.1360   14.4150 C   0  0  0  0  0  0  0  0  0  0  0  0
   52.0120   51.8100   20.5650 C   0  0  0  0  0  0  0  0  0  0  0  0
   51.4540   53.5540   22.2660 C   0  0  0  0  0  0  0  0  0  0  0  0
   51.0310   52.2100   21.6690 C   0  0  0  0  0  0  0  0  0  0  0  0
  1 21  1  0  0  0  0
  2  1  1  0  0  0  0
  2  3  1  1  0  0  0
  3  5  1  0  0  0  0
  4  3  1  0  0  0  0
  6 11  1  1  0  0  0
  6  2  1  0  0  0  0
  7  6  1  0  0  0  0
  7  9  1  0  0  0  0
  8  7  1  0  0  0  0
  9 10  1  6  0  0  0
  9  1  1  0  0  0  0
 11 12  2  0  0  0  0
 12 13  1  0  0  0  0
 14 17  1  0  0  0  0
 14 13  2  0  0  0  0
 15 14  1  0  0  0  0
 16 15  2  0  0  0  0
 16 11  1  0  0  0  0
 17 18  1  0  0  0  0
 19 16  1  0  0  0  0
 20 19  1  0  0  0  0
 21 23  1  0  0  0  0
 23 22  1  0  0  0  0
M  END
>  <MODEL>
1

>  <REMARK>
  Name = ZINC50986550
                            x       y       z     vdW  Elec       q    Type
                         _______ _______ _______ _____ _____    ______ ____

>  <TORSDO>
F 5

>  <minimizedAffinity>
-7.3824165405714526

$$$$
ZINC50986550
 OpenBabel10211212503D

 23 24  0  0  1  0  0  0  0  0999 V2000
   51.8700   51.5670   19.9350 N   0  0  0  0  0  0  0  0  0  0  0  0
   52.2700   52.8860   19.9310 C   0  0  1  0  0  0  0  0  0  0  0  0
   52.8890   53.5220   18.9910 N   0  0  0  0  0  0  0  0  0  0  0  0
   53.1190   54.4570   19.1080 H   0  0  0  0  0  0  0  0  0  0  0  0
   53.1250   53.0640   18.1690 H   0  0  0  0  0  0  0  0  0  0  0  0
   51.8170   53.4250   21.2740 C   0  0  2  0  0  0  0  0  0  0  0  0
   51.1810   52.2680   21.9220 N   0  0  0  0  0  0  0  0  0  0  0  0
   50.7800   52.2590   22.8040 H   0  0  0  0  0  0  0  0  0  0  0  0
   51.2490   51.2680   21.1140 C   0  0  1  0  0  0  0  0  0  0  0  0
   50.6970   49.9040   21.4370 C   0  0  0  0  0  0  0  0  0  0  0  0
   50.8220   54.5420   21.0930 C   0  0  0  0  0  0  0  0  0  0  0  0
   49.6600   54.3240   20.3790 C   0  0  0  0  0  0  0  0  0  0  0  0
   48.7450   55.3460   20.2110 C   0  0  0  0  0  0  0  0  0  0  0  0
   48.9930   56.5960   20.7610 C   0  0  0  0  0  0  0  0  0  0  0  0
   50.1580   56.8180   21.4780 C   0  0  0  0  0  0  0  0  0  0  0  0
   51.0710   55.7890   21.6500 C   0  0  0  0  0  0  0  0  0  0  0  0
   48.0940   57.6010   20.5960 O   0  0  0  0  0  0  0  0  0  0  0  0
   47.9750   58.1570   19.2840 C   0  0  0  0  0  0  0  0  0  0  0  0
   52.2110   56.0020   22.3580 O   0  0  0  0  0  0  0  0  0  0  0  0
   52.9820   57.1550   22.0150 C   0  0  0  0  0  0  0  0  0  0  0  0
   52.0850   50.6220   18.8360 C   0  0  0  0  0  0  0  0  0  0  0  0
   49.7940   50.1370   17.9630 C   0  0  0  0  0  0  0  0  0  0  0  0
   51.0890   50.9120   17.7110 C   0  0  0  0  0  0  0  0  0  0  0  0
  1  9  1  0  0  0  0
  2  3  1  6  0  0  0
  2  1  1  0  0  0  0
  2  6  1  0  0  0  0
  3  4  1  0  0  0  0
  5  3  1  0  0  0  0
  6 11  1  6  0  0  0
  6  7  1  0  0  0  0
  7  8  1  0  0  0  0
  9 10  1  6  0  0  0
  9  7  1  0  0  0  0
 11 16  2  0  0  0  0
 12 11  1  0  0  0  0
 13 12  2  0  0  0  0
 13 14  1  0  0  0  0
 14 15  2  0  0  0  0
 15 16  1  0  0  0  0
 16 19  1  0  0  0  0
 17 14  1  0  0  0  0
 18 17  1  0  0  0  0
 20 19  1  0  0  0  0
 21  1  1  0  0  0  0
 23 22  1  0  0  0  0
 23 21  1  0  0  0  0
M  END
>  <MODEL>
2

>  <REMARK>
  Name = ZINC50986550
                            x       y       z     vdW  Elec       q    Type
                         _______ _______ _______ _____ _____    ______ ____

>  <TORSDO>
F 5

>  <minimizedAffinity>
-7.1997071492445075

$$$$
ZINC50986550
 OpenBabel10211212503D

 23 24  0  0  1  0  0  0  0  0999 V2000
   47.0610   47.7360   17.0010 N   0  0  0  0  0  0  0  0  0  0  0  0
   48.3970   48.0730   16.9990 C   0  0  1  0  0  0  0  0  0  0  0  0
   49.2340   47.9810   16.0180 N   0  0  0  0  0  0  0  0  0  0  0  0
   50.1570   48.2530   16.1420 H   0  0  0  0  0  0  0  0  0  0  0  0
   48.9400   47.6410   15.1590 H   0  0  0  0  0  0  0  0  0  0  0  0
   48.6630   48.5810   18.4030 C   0  0  2  0  0  0  0  0  0  0  0  0
   47.3630   48.4520   19.0770 N   0  0  0  0  0  0  0  0  0  0  0  0
   47.1730   48.6870   19.9980 H   0  0  0  0  0  0  0  0  0  0  0  0
   46.5180   47.9750   18.2320 C   0  0  2  0  0  0  0  0  0  0  0  0
   45.0740   47.7050   18.5660 C   0  0  0  0  0  0  0  0  0  0  0  0
   49.1050   50.0210   18.3760 C   0  0  0  0  0  0  0  0  0  0  0  0
   48.4080   50.9440   17.6200 C   0  0  0  0  0  0  0  0  0  0  0  0
   48.8090   52.2650   17.5930 C   0  0  0  0  0  0  0  0  0  0  0  0
   49.9170   52.6690   18.3260 C   0  0  0  0  0  0  0  0  0  0  0  0
   50.6180   51.7460   19.0850 C   0  0  0  0  0  0  0  0  0  0  0  0
   50.2100   50.4220   19.1150 C   0  0  0  0  0  0  0  0  0  0  0  0
   50.3120   53.9680   18.2990 O   0  0  0  0  0  0  0  0  0  0  0  0
   51.5020   54.3010   19.0190 C   0  0  0  0  0  0  0  0  0  0  0  0
   50.8920   49.5160   19.8630 O   0  0  0  0  0  0  0  0  0  0  0  0
   52.3180   49.6030   19.8460 C   0  0  0  0  0  0  0  0  0  0  0  0
   46.3300   47.1940   15.8520 C   0  0  0  0  0  0  0  0  0  0  0  0
   45.8820   47.9810   13.5230 C   0  0  0  0  0  0  0  0  0  0  0  0
   45.7840   48.3460   15.0060 C   0  0  0  0  0  0  0  0  0  0  0  0
  1  9  1  0  0  0  0
  2  3  1  6  0  0  0
  2  1  1  0  0  0  0
  2  6  1  0  0  0  0
  3  4  1  0  0  0  0
  5  3  1  0  0  0  0
  6 11  1  6  0  0  0
  6  7  1  0  0  0  0
  7  8  1  0  0  0  0
  9 10  1  1  0  0  0
  9  7  1  0  0  0  0
 11 16  2  0  0  0  0
 12 11  1  0  0  0  0
 13 12  2  0  0  0  0
 13 14  1  0  0  0  0
 14 15  2  0  0  0  0
 15 16  1  0  0  0  0
 16 19  1  0  0  0  0
 17 14  1  0  0  0  0
 17 18  1  0  0  0  0
 20 19  1  0  0  0  0
 21  1  1  0  0  0  0
 22 23  1  0  0  0  0
 23 21  1  0  0  0  0
M  END
>  <MODEL>
3

>  <REMARK>
  Name = ZINC50986550
                            x       y       z     vdW  Elec       q    Type
                         _______ _______ _______ _____ _____    ______ ____

>  <TORSDO>
F 5

>  <minimizedAffinity>
-7.1885911312676622

$$$$
ZINC50986550
 OpenBabel10211212503D

 23 24  0  0  1  0  0  0  0  0999 V2000
   46.8370   47.6680   17.0130 N   0  0  0  0  0  0  0  0  0  0  0  0
   48.0160   48.3160   16.7120 C   0  0  1  0  0  0  0  0  0  0  0  0
   48.6630   48.2990   15.5930 N   0  0  0  0  0  0  0  0  0  0  0  0
   49.4890   48.8000   15.5030 H   0  0  0  0  0  0  0  0  0  0  0  0
   48.3230   47.7860   14.8430 H   0  0  0  0  0  0  0  0  0  0  0  0
   48.3800   49.0550   17.9840 C   0  0  2  0  0  0  0  0  0  0  0  0
   47.2980   48.7070   18.9170 N   0  0  0  0  0  0  0  0  0  0  0  0
   47.2170   49.0090   19.8340 H   0  0  0  0  0  0  0  0  0  0  0  0
   46.4740   47.9310   18.3040 C   0  0  2  0  0  0  0  0  0  0  0  0
   45.2330   47.3670   18.9460 C   0  0  0  0  0  0  0  0  0  0  0  0
   48.4160   50.5430   17.7480 C   0  0  0  0  0  0  0  0  0  0  0  0
   47.3130   51.1850   17.2190 C   0  0  0  0  0  0  0  0  0  0  0  0
   47.3410   52.5480   17.0010 C   0  0  0  0  0  0  0  0  0  0  0  0
   48.4810   53.2770   17.3110 C   0  0  0  0  0  0  0  0  0  0  0  0
   49.5890   52.6360   17.8410 C   0  0  0  0  0  0  0  0  0  0  0  0
   49.5560   51.2680   18.0650 C   0  0  0  0  0  0  0  0  0  0  0  0
   48.5100   54.6180   17.0960 O   0  0  0  0  0  0  0  0  0  0  0  0
   48.8680   55.4470   18.2030 C   0  0  0  0  0  0  0  0  0  0  0  0
   50.6390   50.6370   18.5900 O   0  0  0  0  0  0  0  0  0  0  0  0
   51.8790   51.3450   18.5590 C   0  0  0  0  0  0  0  0  0  0  0  0
   46.0860   46.8180   16.0860 C   0  0  0  0  0  0  0  0  0  0  0  0
   45.5110   47.8230   13.8720 C   0  0  0  0  0  0  0  0  0  0  0  0
   45.0650   47.6690   15.3270 C   0  0  0  0  0  0  0  0  0  0  0  0
  1  9  1  0  0  0  0
  2  3  1  6  0  0  0
  2  1  1  0  0  0  0
  2  6  1  0  0  0  0
  4  3  1  0  0  0  0
  5  3  1  0  0  0  0
  6 11  1  6  0  0  0
  6  7  1  0  0  0  0
  7  8  1  0  0  0  0
  9  7  1  0  0  0  0
  9 10  1  1  0  0  0
 11 16  2  0  0  0  0
 12 11  1  0  0  0  0
 13 12  2  0  0  0  0
 13 14  1  0  0  0  0
 14 15  2  0  0  0  0
 15 16  1  0  0  0  0
 16 19  1  0  0  0  0
 17 14  1  0  0  0  0
 17 18  1  0  0  0  0
 20 19  1  0  0  0  0
 21  1  1  0  0  0  0
 22 23  1  0  0  0  0
 23 21  1  0  0  0  0
M  END
>  <MODEL>
4

>  <REMARK>
  Name = ZINC50986550
                            x       y       z     vdW  Elec       q    Type
                         _______ _______ _______ _____ _____    ______ ____

>  <TORSDO>
F 5

>  <minimizedAffinity>
-7.1544771407000862

$$$$
ZINC50986550
 OpenBabel10211212503D

 23 24  0  0  1  0  0  0  0  0999 V2000
   47.6460   49.7500   16.7050 N   0  0  0  0  0  0  0  0  0  0  0  0
   47.9610   51.0590   16.9970 C   0  0  1  0  0  0  0  0  0  0  0  0
   47.1460   52.0350   17.2310 N   0  0  0  0  0  0  0  0  0  0  0  0
   47.4920   52.9200   17.4260 H   0  0  0  0  0  0  0  0  0  0  0  0
   46.1880   51.8830   17.2130 H   0  0  0  0  0  0  0  0  0  0  0  0
   49.4760   51.0980   16.9850 C   0  0  2  0  0  0  0  0  0  0  0  0
   49.8620   49.7170   16.6580 N   0  0  0  0  0  0  0  0  0  0  0  0
   50.7680   49.3860   16.5650 H   0  0  0  0  0  0  0  0  0  0  0  0
   48.7870   49.0230   16.5170 C   0  0  2  0  0  0  0  0  0  0  0  0
   48.7880   47.5550   16.1770 C   0  0  0  0  0  0  0  0  0  0  0  0
   50.0120   51.4900   18.3380 C   0  0  0  0  0  0  0  0  0  0  0  0
   50.4670   50.5190   19.2080 C   0  0  0  0  0  0  0  0  0  0  0  0
   50.9590   50.8740   20.4490 C   0  0  0  0  0  0  0  0  0  0  0  0
   50.9950   52.2100   20.8250 C   0  0  0  0  0  0  0  0  0  0  0  0
   50.5390   53.1860   19.9540 C   0  0  0  0  0  0  0  0  0  0  0  0
   50.0510   52.8280   18.7070 C   0  0  0  0  0  0  0  0  0  0  0  0
   51.4780   52.5590   22.0460 O   0  0  0  0  0  0  0  0  0  0  0  0
   51.5680   53.9560   22.3340 C   0  0  0  0  0  0  0  0  0  0  0  0
   49.6090   53.7830   17.8480 O   0  0  0  0  0  0  0  0  0  0  0  0
   49.0540   54.9660   18.4250 C   0  0  0  0  0  0  0  0  0  0  0  0
   46.2850   49.2160   16.6060 C   0  0  0  0  0  0  0  0  0  0  0  0
   44.5070   47.9670   17.8400 C   0  0  0  0  0  0  0  0  0  0  0  0
   45.8280   48.7270   17.9820 C   0  0  0  0  0  0  0  0  0  0  0  0
  1  2  1  0  0  0  0
  2  3  1  1  0  0  0
  3  4  1  0  0  0  0
  5  3  1  0  0  0  0
  6  2  1  0  0  0  0
  6 11  1  1  0  0  0
  7  6  1  0  0  0  0
  8  7  1  0  0  0  0
  9 10  1  6  0  0  0
  9  7  1  0  0  0  0
  9  1  1  0  0  0  0
 11 16  2  0  0  0  0
 11 12  1  0  0  0  0
 12 13  2  0  0  0  0
 13 14  1  0  0  0  0
 14 17  1  0  0  0  0
 15 14  2  0  0  0  0
 16 15  1  0  0  0  0
 17 18  1  0  0  0  0
 19 20  1  0  0  0  0
 19 16  1  0  0  0  0
 21  1  1  0  0  0  0
 21 23  1  0  0  0  0
 22 23  1  0  0  0  0
M  END
>  <MODEL>
5

>  <REMARK>
  Name = ZINC50986550
                            x       y       z     vdW  Elec       q    Type
                         _______ _______ _______ _____ _____    ______ ____

>  <TORSDO>
F 5

>  <minimizedAffinity>
-7.1127870842461682

$$$$
ZINC50986550
 OpenBabel10211212503D

 23 24  0  0  1  0  0  0  0  0999 V2000
   49.6860   50.0240   18.3840 N   0  0  0  0  0  0  0  0  0  0  0  0
   49.8870   51.2240   17.7380 C   0  0  1  0  0  0  0  0  0  0  0  0
   49.4270   51.5880   16.5860 N   0  0  0  0  0  0  0  0  0  0  0  0
   49.6410   52.4660   16.2340 H   0  0  0  0  0  0  0  0  0  0  0  0
   48.8690   50.9830   16.0730 H   0  0  0  0  0  0  0  0  0  0  0  0
   50.7650   52.0220   18.6810 C   0  0  2  0  0  0  0  0  0  0  0  0
   50.9750   51.1150   19.8190 N   0  0  0  0  0  0  0  0  0  0  0  0
   51.5000   51.3080   20.6120 H   0  0  0  0  0  0  0  0  0  0  0  0
   50.3430   50.0200   19.5820 C   0  0  1  0  0  0  0  0  0  0  0  0
   50.3280   48.8500   20.5310 C   0  0  0  0  0  0  0  0  0  0  0  0
   50.0630   53.2780   19.1300 C   0  0  0  0  0  0  0  0  0  0  0  0
   48.9010   53.6820   18.5030 C   0  0  0  0  0  0  0  0  0  0  0  0
   48.2550   54.8330   18.9110 C   0  0  0  0  0  0  0  0  0  0  0  0
   48.7750   55.5880   19.9540 C   0  0  0  0  0  0  0  0  0  0  0  0
   49.9410   55.1860   20.5840 C   0  0  0  0  0  0  0  0  0  0  0  0
   50.5840   54.0270   20.1770 C   0  0  0  0  0  0  0  0  0  0  0  0
   48.1410   56.7200   20.3540 O   0  0  0  0  0  0  0  0  0  0  0  0
   48.8110   57.5340   21.3190 C   0  0  0  0  0  0  0  0  0  0  0  0
   51.7240   53.6270   20.7970 O   0  0  0  0  0  0  0  0  0  0  0  0
   51.6900   53.5360   22.2220 C   0  0  0  0  0  0  0  0  0  0  0  0
   48.8880   48.9110   17.8610 C   0  0  0  0  0  0  0  0  0  0  0  0
   46.5070   49.5510   17.4500 C   0  0  0  0  0  0  0  0  0  0  0  0
   47.4840   48.9610   18.4690 C   0  0  0  0  0  0  0  0  0  0  0  0
  1  9  1  0  0  0  0
  2  3  1  1  0  0  0
  2  1  1  0  0  0  0
  2  6  1  0  0  0  0
  4  3  1  0  0  0  0
  5  3  1  0  0  0  0
  6 11  1  1  0  0  0
  6  7  1  0  0  0  0
  7  8  1  0  0  0  0
  9  7  1  0  0  0  0
  9 10  1  1  0  0  0
 11 16  2  0  0  0  0
 12 13  2  0  0  0  0
 12 11  1  0  0  0  0
 13 14  1  0  0  0  0
 14 17  1  0  0  0  0
 14 15  2  0  0  0  0
 16 15  1  0  0  0  0
 16 19  1  0  0  0  0
 17 18  1  0  0  0  0
 19 20  1  0  0  0  0
 21  1  1  0  0  0  0
 21 23  1  0  0  0  0
 22 23  1  0  0  0  0
M  END
>  <MODEL>
6

>  <REMARK>
  Name = ZINC50986550
                            x       y       z     vdW  Elec       q    Type
                         _______ _______ _______ _____ _____    ______ ____

>  <TORSDO>
F 5

>  <minimizedAffinity>
-7.0405861984840037

$$$$
ZINC50986550
 OpenBabel10211212503D

 23 24  0  0  1  0  0  0  0  0999 V2000
   49.0730   49.9250   16.5670 N   0  0  0  0  0  0  0  0  0  0  0  0
   48.1050   49.1920   17.2180 C   0  0  1  0  0  0  0  0  0  0  0  0
   47.4450   49.5200   18.2800 N   0  0  0  0  0  0  0  0  0  0  0  0
   46.7830   48.9130   18.6470 H   0  0  0  0  0  0  0  0  0  0  0  0
   47.6120   50.3720   18.7110 H   0  0  0  0  0  0  0  0  0  0  0  0
   47.9840   47.9160   16.4070 C   0  0  2  0  0  0  0  0  0  0  0  0
   48.9690   48.0890   15.3290 N   0  0  0  0  0  0  0  0  0  0  0  0
   49.1580   47.4520   14.6230 H   0  0  0  0  0  0  0  0  0  0  0  0
   49.5370   49.2330   15.4840 C   0  0  2  0  0  0  0  0  0  0  0  0
   50.6080   49.7580   14.5630 C   0  0  0  0  0  0  0  0  0  0  0  0
   46.5960   47.7750   15.8370 C   0  0  0  0  0  0  0  0  0  0  0  0
   46.3470   48.1350   14.5270 C   0  0  0  0  0  0  0  0  0  0  0  0
   45.0770   48.0070   14.0000 C   0  0  0  0  0  0  0  0  0  0  0  0
   44.0450   47.5160   14.7890 C   0  0  0  0  0  0  0  0  0  0  0  0
   44.2920   47.1540   16.1040 C   0  0  0  0  0  0  0  0  0  0  0  0
   45.5690   47.2780   16.6280 C   0  0  0  0  0  0  0  0  0  0  0  0
   42.7950   47.3910   14.2720 O   0  0  0  0  0  0  0  0  0  0  0  0
   42.6790   46.7410   13.0040 C   0  0  0  0  0  0  0  0  0  0  0  0
   45.8150   46.9180   17.9140 O   0  0  0  0  0  0  0  0  0  0  0  0
   44.8280   47.2700   18.8860 C   0  0  0  0  0  0  0  0  0  0  0  0
   49.5410   51.2500   16.9800 C   0  0  0  0  0  0  0  0  0  0  0  0
   48.2740   53.3120   17.6050 C   0  0  0  0  0  0  0  0  0  0  0  0
   48.5620   52.3150   16.4800 C   0  0  0  0  0  0  0  0  0  0  0  0
  1 21  1  0  0  0  0
  1  2  1  0  0  0  0
  2  3  1  6  0  0  0
  3  4  1  0  0  0  0
  3  5  1  0  0  0  0
  6 11  1  6  0  0  0
  6  2  1  0  0  0  0
  7  9  1  0  0  0  0
  7  6  1  0  0  0  0
  8  7  1  0  0  0  0
  9 10  1  1  0  0  0
  9  1  1  0  0  0  0
 11 16  2  0  0  0  0
 12 11  1  0  0  0  0
 13 12  2  0  0  0  0
 13 14  1  0  0  0  0
 14 15  2  0  0  0  0
 15 16  1  0  0  0  0
 16 19  1  0  0  0  0
 17 14  1  0  0  0  0
 18 17  1  0  0  0  0
 19 20  1  0  0  0  0
 23 21  1  0  0  0  0
 23 22  1  0  0  0  0
M  END
>  <MODEL>
7

>  <REMARK>
  Name = ZINC50986550
                            x       y       z     vdW  Elec       q    Type
                         _______ _______ _______ _____ _____    ______ ____

>  <TORSDO>
F 5

>  <minimizedAffinity>
-6.6439722597631867

$$$$
ZINC50986550
 OpenBabel10211212503D

 23 24  0  0  1  0  0  0  0  0999 V2000
   50.7010   51.8470   19.9030 N   0  0  0  0  0  0  0  0  0  0  0  0
   50.6420   52.6520   21.0190 C   0  0  1  0  0  0  0  0  0  0  0  0
   51.1690   52.4350   22.1800 N   0  0  0  0  0  0  0  0  0  0  0  0
   51.0560   53.0830   22.8930 H   0  0  0  0  0  0  0  0  0  0  0  0
   51.6770   51.6240   22.3370 H   0  0  0  0  0  0  0  0  0  0  0  0
   49.8240   53.8510   20.5810 C   0  0  2  0  0  0  0  0  0  0  0  0
   49.4890   53.5570   19.1800 N   0  0  0  0  0  0  0  0  0  0  0  0
   48.9650   54.1200   18.5890 H   0  0  0  0  0  0  0  0  0  0  0  0
   50.0140   52.4230   18.8720 C   0  0  2  0  0  0  0  0  0  0  0  0
   49.8820   51.7930   17.5100 C   0  0  0  0  0  0  0  0  0  0  0  0
   50.6360   55.1170   20.6760 C   0  0  0  0  0  0  0  0  0  0  0  0
   52.0160   55.0560   20.6450 C   0  0  0  0  0  0  0  0  0  0  0  0
   52.7640   56.2140   20.7320 C   0  0  0  0  0  0  0  0  0  0  0  0
   52.1300   57.4430   20.8520 C   0  0  0  0  0  0  0  0  0  0  0  0
   50.7460   57.5070   20.8840 C   0  0  0  0  0  0  0  0  0  0  0  0
   49.9970   56.3440   20.7900 C   0  0  0  0  0  0  0  0  0  0  0  0
   52.8650   58.5820   20.9380 O   0  0  0  0  0  0  0  0  0  0  0  0
   54.2770   58.4590   20.7520 C   0  0  0  0  0  0  0  0  0  0  0  0
   48.6400   56.4040   20.8150 O   0  0  0  0  0  0  0  0  0  0  0  0
   48.0490   57.7050   20.8270 C   0  0  0  0  0  0  0  0  0  0  0  0
   51.3960   50.5590   19.8320 C   0  0  0  0  0  0  0  0  0  0  0  0
   49.7350   48.7470   19.3840 C   0  0  0  0  0  0  0  0  0  0  0  0
   50.5270   49.4750   20.4720 C   0  0  0  0  0  0  0  0  0  0  0  0
  1  2  1  0  0  0  0
  2  3  1  6  0  0  0
  3  5  1  0  0  0  0
  3  4  1  0  0  0  0
  6 11  1  6  0  0  0
  6  2  1  0  0  0  0
  7  6  1  0  0  0  0
  8  7  1  0  0  0  0
  9 10  1  1  0  0  0
  9  7  1  0  0  0  0
  9  1  1  0  0  0  0
 11 16  1  0  0  0  0
 12 11  2  0  0  0  0
 12 13  1  0  0  0  0
 13 14  2  0  0  0  0
 14 15  1  0  0  0  0
 14 17  1  0  0  0  0
 16 19  1  0  0  0  0
 16 15  2  0  0  0  0
 18 17  1  0  0  0  0
 19 20  1  0  0  0  0
 21  1  1  0  0  0  0
 21 23  1  0  0  0  0
 22 23  1  0  0  0  0
M  END
>  <MODEL>
8

>  <REMARK>
  Name = ZINC50986550
                            x       y       z     vdW  Elec       q    Type
                         _______ _______ _______ _____ _____    ______ ____

>  <TORSDO>
F 5

>  <minimizedAffinity>
-6.6373339206176993

$$$$
ZINC50986550
 OpenBabel10211212503D

 23 24  0  0  1  0  0  0  0  0999 V2000
   49.4490   50.5630   17.8160 N   0  0  0  0  0  0  0  0  0  0  0  0
   48.3620   50.9940   17.0880 C   0  0  1  0  0  0  0  0  0  0  0  0
   48.3250   51.9390   16.2060 N   0  0  0  0  0  0  0  0  0  0  0  0
   47.4910   52.1510   15.7580 H   0  0  0  0  0  0  0  0  0  0  0  0
   49.1300   52.4340   15.9920 H   0  0  0  0  0  0  0  0  0  0  0  0
   47.2190   50.1120   17.5510 C   0  0  2  0  0  0  0  0  0  0  0  0
   47.8370   49.2350   18.5570 N   0  0  0  0  0  0  0  0  0  0  0  0
   47.3850   48.5420   19.0630 H   0  0  0  0  0  0  0  0  0  0  0  0
   49.0820   49.5450   18.6500 C   0  0  2  0  0  0  0  0  0  0  0  0
   50.0400   48.8550   19.5860 C   0  0  0  0  0  0  0  0  0  0  0  0
   46.6730   49.2990   16.4060 C   0  0  0  0  0  0  0  0  0  0  0  0
   47.3990   49.1770   15.2370 C   0  0  0  0  0  0  0  0  0  0  0  0
   46.9020   48.4330   14.1840 C   0  0  0  0  0  0  0  0  0  0  0  0
   45.6690   47.8060   14.3000 C   0  0  0  0  0  0  0  0  0  0  0  0
   44.9380   47.9260   15.4710 C   0  0  0  0  0  0  0  0  0  0  0  0
   45.4420   48.6690   16.5270 C   0  0  0  0  0  0  0  0  0  0  0  0
   45.1800   47.0750   13.2650 O   0  0  0  0  0  0  0  0  0  0  0  0
   45.3790   47.5970   11.9490 C   0  0  0  0  0  0  0  0  0  0  0  0
   44.7310   48.7830   17.6790 O   0  0  0  0  0  0  0  0  0  0  0  0
   44.6220   47.6140   18.4930 C   0  0  0  0  0  0  0  0  0  0  0  0
   50.8020   51.1180   17.7140 C   0  0  0  0  0  0  0  0  0  0  0  0
   52.3570   52.8590   18.6050 C   0  0  0  0  0  0  0  0  0  0  0  0
   50.9090   52.3660   18.5930 C   0  0  0  0  0  0  0  0  0  0  0  0
  1  9  1  0  0  0  0
  2  3  1  6  0  0  0
  2  6  1  0  0  0  0
  2  1  1  0  0  0  0
  4  3  1  0  0  0  0
  5  3  1  0  0  0  0
  6 11  1  6  0  0  0
  6  7  1  0  0  0  0
  7  9  1  0  0  0  0
  7  8  1  0  0  0  0
  9 10  1  1  0  0  0
 11 16  1  0  0  0  0
 12 11  2  0  0  0  0
 13 14  2  0  0  0  0
 13 12  1  0  0  0  0
 14 15  1  0  0  0  0
 15 16  2  0  0  0  0
 16 19  1  0  0  0  0
 17 14  1  0  0  0  0
 18 17  1  0  0  0  0
 19 20  1  0  0  0  0
 21  1  1  0  0  0  0
 21 23  1  0  0  0  0
 23 22  1  0  0  0  0
M  END
>  <MODEL>
9

>  <REMARK>
  Name = ZINC50986550
                            x       y       z     vdW  Elec       q    Type
                         _______ _______ _______ _____ _____    ______ ____

>  <TORSDO>
F 5

>  <minimizedAffinity>
-6.6119231065456647

$$$$
ZINC45217183
 OpenBabel10211212513D

 15 14  0  0  1  0  0  0  0  0999 V2000
   51.8590   57.0910   21.3030 C   0  0  1  0  0  0  0  0  0  0  0  0
   51.4540   56.2410   22.5100 C   0  0  0  0  0  0  0  0  0  0  0  0
   50.6530   57.5670   20.6130 N   0  0  0  0  0  0  0  0  0  0  0  0
   50.7010   58.5610   20.4440 H   0  0  0  0  0  0  0  0  0  0  0  0
   49.4420   57.2190   21.3690 C   0  0  0  0  0  0  0  0  0  0  0  0
   48.4040   56.6180   20.4180 C   0  0  0  0  0  0  0  0  0  0  0  0
   48.8680   58.4780   22.0200 C   0  0  0  0  0  0  0  0  0  0  0  0
   52.6520   58.2450   21.7590 C   0  0  0  0  0  0  0  0  0  0  0  0
   53.2650   59.1350   22.1100 N   0  0  0  0  0  0  0  0  0  0  0  0
   52.6970   56.2450   20.3420 C   0  0  0  0  0  0  0  0  0  0  0  0
   51.7970   55.6820   19.2410 C   0  0  0  0  0  0  0  0  0  0  0  0
   51.8040   53.8690   19.3220 S   0  0  0  0  0  0  0  0  0  0  0  0
   50.3500   53.4710   20.3330 C   0  0  0  0  0  0  0  0  0  0  0  0
   51.8090   51.7240   21.3620 C   0  0  0  0  0  0  0  0  0  0  0  0
   50.8040   52.8400   21.6510 C   0  0  0  0  0  0  0  0  0  0  0  0
  1 10  1  6  0  0  0
  1  8  1  0  0  0  0
  1  2  1  0  0  0  0
  3  1  1  0  0  0  0
  3  5  1  0  0  0  0
  4  3  1  0  0  0  0
  5  7  1  0  0  0  0
  6  5  1  0  0  0  0
  8  9  3  0  0  0  0
 11 12  1  0  0  0  0
 11 10  1  0  0  0  0
 12 13  1  0  0  0  0
 13 15  1  0  0  0  0
 14 15  1  0  0  0  0
M  END
>  <MODEL>
1

>  <REMARK>
  Name = ZINC45217183
                            x       y       z     vdW  Elec       q    Type
                         _______ _______ _______ _____ _____    ______ ____

>  <TORSDO>
F 8

>  <minimizedAffinity>
-5.2219004847568007

$$$$
ZINC45217183
 OpenBabel10211212513D

 15 14  0  0  1  0  0  0  0  0999 V2000
   51.9750   56.5660   21.1800 C   0  0  1  0  0  0  0  0  0  0  0  0
   51.6030   56.0120   22.5570 C   0  0  0  0  0  0  0  0  0  0  0  0
   50.8530   57.3520   20.6480 N   0  0  0  0  0  0  0  0  0  0  0  0
   51.0350   58.3410   20.7280 H   0  0  0  0  0  0  0  0  0  0  0  0
   49.5950   56.9920   21.3170 C   0  0  0  0  0  0  0  0  0  0  0  0
   48.6690   56.2970   20.3160 C   0  0  0  0  0  0  0  0  0  0  0  0
   48.9180   58.2580   21.8450 C   0  0  0  0  0  0  0  0  0  0  0  0
   53.1640   57.4260   21.3010 C   0  0  0  0  0  0  0  0  0  0  0  0
   54.0810   58.0900   21.3960 N   0  0  0  0  0  0  0  0  0  0  0  0
   52.2810   55.4060   20.2290 C   0  0  0  0  0  0  0  0  0  0  0  0
   51.8500   54.0890   20.8760 C   0  0  0  0  0  0  0  0  0  0  0  0
   52.2870   52.7070   19.7850 S   0  0  0  0  0  0  0  0  0  0  0  0
   52.2300   51.2550   20.8710 C   0  0  0  0  0  0  0  0  0  0  0  0
   50.6610   49.3210   20.6730 C   0  0  0  0  0  0  0  0  0  0  0  0
   51.8710   50.0160   20.0470 C   0  0  0  0  0  0  0  0  0  0  0  0
  1 10  1  6  0  0  0
  1  8  1  0  0  0  0
  1  2  1  0  0  0  0
  3  4  1  0  0  0  0
  3  1  1  0  0  0  0
  3  5  1  0  0  0  0
  5  7  1  0  0  0  0
  6  5  1  0  0  0  0
  8  9  3  0  0  0  0
 10 11  1  0  0  0  0
 12 13  1  0  0  0  0
 12 11  1  0  0  0  0
 15 14  1  0  0  0  0
 15 13  1  0  0  0  0
M  END
>  <MODEL>
2

>  <REMARK>
  Name = ZINC45217183
                            x       y       z     vdW  Elec       q    Type
                         _______ _______ _______ _____ _____    ______ ____

>  <TORSDO>
F 8

>  <minimizedAffinity>
-4.9595120880998769

$$$$
ZINC45217183
 OpenBabel10211212513D

 15 14  0  0  1  0  0  0  0  0999 V2000
   50.8610   52.2410   19.1000 C   0  0  1  0  0  0  0  0  0  0  0  0
   49.7360   52.8770   18.2810 C   0  0  0  0  0  0  0  0  0  0  0  0
   50.7520   50.7780   19.0290 N   0  0  0  0  0  0  0  0  0  0  0  0
   49.7900   50.4920   18.9240 H   0  0  0  0  0  0  0  0  0  0  0  0
   51.3640   50.1470   20.2070 C   0  0  0  0  0  0  0  0  0  0  0  0
   52.7470   49.6080   19.8340 C   0  0  0  0  0  0  0  0  0  0  0  0
   50.4790   48.9940   20.6850 C   0  0  0  0  0  0  0  0  0  0  0  0
   52.1630   52.6640   18.5570 C   0  0  0  0  0  0  0  0  0  0  0  0
   53.1670   52.9910   18.1380 N   0  0  0  0  0  0  0  0  0  0  0  0
   50.7480   52.6910   20.5590 C   0  0  0  0  0  0  0  0  0  0  0  0
   50.2060   54.1200   20.6110 C   0  0  0  0  0  0  0  0  0  0  0  0
   51.3380   55.1610   21.5740 S   0  0  0  0  0  0  0  0  0  0  0  0
   50.5180   56.7790   21.6150 C   0  0  0  0  0  0  0  0  0  0  0  0
   48.3740   57.9780   21.1600 C   0  0  0  0  0  0  0  0  0  0  0  0
   49.1380   56.6680   20.9620 C   0  0  0  0  0  0  0  0  0  0  0  0
  1  2  1  6  0  0  0
  1 10  1  0  0  0  0
  3  1  1  0  0  0  0
  3  5  1  0  0  0  0
  4  3  1  0  0  0  0
  5  7  1  0  0  0  0
  6  5  1  0  0  0  0
  8  1  1  0  0  0  0
  9  8  3  0  0  0  0
 10 11  1  0  0  0  0
 11 12  1  0  0  0  0
 12 13  1  0  0  0  0
 15 14  1  0  0  0  0
 15 13  1  0  0  0  0
M  END
>  <MODEL>
3

>  <REMARK>
  Name = ZINC45217183
                            x       y       z     vdW  Elec       q    Type
                         _______ _______ _______ _____ _____    ______ ____

>  <TORSDO>
F 8

>  <minimizedAffinity>
-4.8303716166455697

$$$$
ZINC45217183
 OpenBabel10211212513D

 15 14  0  0  1  0  0  0  0  0999 V2000
   51.8680   52.2590   19.1970 C   0  0  1  0  0  0  0  0  0  0  0  0
   52.9400   53.3010   18.8720 C   0  0  0  0  0  0  0  0  0  0  0  0
   51.0820   51.9700   17.9890 N   0  0  0  0  0  0  0  0  0  0  0  0
   51.2330   52.6760   17.2830 H   0  0  0  0  0  0  0  0  0  0  0  0
   49.6540   51.8420   18.3090 C   0  0  0  0  0  0  0  0  0  0  0  0
   49.2330   50.3770   18.1750 C   0  0  0  0  0  0  0  0  0  0  0  0
   48.8360   52.6980   17.3410 C   0  0  0  0  0  0  0  0  0  0  0  0
   52.5120   51.0220   19.6710 C   0  0  0  0  0  0  0  0  0  0  0  0
   53.0100   50.0690   20.0360 N   0  0  0  0  0  0  0  0  0  0  0  0
   50.9430   52.8010   20.2890 C   0  0  0  0  0  0  0  0  0  0  0  0
   51.7360   52.9830   21.5850 C   0  0  0  0  0  0  0  0  0  0  0  0
   51.5210   54.6780   22.1930 S   0  0  0  0  0  0  0  0  0  0  0  0
   50.4390   55.4530   20.9600 C   0  0  0  0  0  0  0  0  0  0  0  0
   48.6740   57.2190   21.0400 C   0  0  0  0  0  0  0  0  0  0  0  0
   50.1270   56.8890   21.3860 C   0  0  0  0  0  0  0  0  0  0  0  0
  1  3  1  6  0  0  0
  1  8  1  0  0  0  0
  1 10  1  0  0  0  0
  2  1  1  0  0  0  0
  3  5  1  0  0  0  0
  4  3  1  0  0  0  0
  6  5  1  0  0  0  0
  7  5  1  0  0  0  0
  8  9  3  0  0  0  0
 10 11  1  0  0  0  0
 11 12  1  0  0  0  0
 13 15  1  0  0  0  0
 13 12  1  0  0  0  0
 14 15  1  0  0  0  0
M  END
>  <MODEL>
4

>  <REMARK>
  Name = ZINC45217183
                            x       y       z     vdW  Elec       q    Type
                         _______ _______ _______ _____ _____    ______ ____

>  <TORSDO>
F 8

>  <minimizedAffinity>
-4.7987727978719965

$$$$
ZINC45217183
 OpenBabel10211212513D

 15 14  0  0  1  0  0  0  0  0999 V2000
   51.4740   54.3680   19.8710 C   0  0  1  0  0  0  0  0  0  0  0  0
   50.4410   53.4440   20.5190 C   0  0  0  0  0  0  0  0  0  0  0  0
   52.3340   54.9480   20.9120 N   0  0  0  0  0  0  0  0  0  0  0  0
   52.3390   54.3710   21.7400 H   0  0  0  0  0  0  0  0  0  0  0  0
   51.9220   56.3220   21.2290 C   0  0  0  0  0  0  0  0  0  0  0  0
   53.1280   57.2560   21.1010 C   0  0  0  0  0  0  0  0  0  0  0  0
   51.3850   56.3760   22.6600 C   0  0  0  0  0  0  0  0  0  0  0  0
   52.2990   53.5960   18.9260 C   0  0  0  0  0  0  0  0  0  0  0  0
   52.9350   53.0000   18.1970 N   0  0  0  0  0  0  0  0  0  0  0  0
   50.7550   55.4900   19.1200 C   0  0  0  0  0  0  0  0  0  0  0  0
   49.2930   55.1000   18.8970 C   0  0  0  0  0  0  0  0  0  0  0  0
   48.5080   56.3000   17.7860 S   0  0  0  0  0  0  0  0  0  0  0  0
   48.0940   57.6950   18.8700 C   0  0  0  0  0  0  0  0  0  0  0  0
   48.3770   58.0360   21.3280 C   0  0  0  0  0  0  0  0  0  0  0  0
   47.7150   57.1690   20.2560 C   0  0  0  0  0  0  0  0  0  0  0  0
  1  8  1  6  0  0  0
  1  2  1  0  0  0  0
  1  3  1  0  0  0  0
  3  5  1  0  0  0  0
  3  4  1  0  0  0  0
  5  7  1  0  0  0  0
  6  5  1  0  0  0  0
  9  8  3  0  0  0  0
 10  1  1  0  0  0  0
 11 10  1  0  0  0  0
 12 13  1  0  0  0  0
 12 11  1  0  0  0  0
 13 15  1  0  0  0  0
 15 14  1  0  0  0  0
M  END
>  <MODEL>
5

>  <REMARK>
  Name = ZINC45217183
                            x       y       z     vdW  Elec       q    Type
                         _______ _______ _______ _____ _____    ______ ____

>  <TORSDO>
F 8

>  <minimizedAffinity>
-4.7303326798561187

$$$$
ZINC45217183
 OpenBabel10211212513D

 15 14  0  0  1  0  0  0  0  0999 V2000
   51.3240   53.7240   21.0070 C   0  0  1  0  0  0  0  0  0  0  0  0
   51.5080   52.5300   21.9470 C   0  0  0  0  0  0  0  0  0  0  0  0
   49.8970   53.8860   20.6950 N   0  0  0  0  0  0  0  0  0  0  0  0
   49.4810   53.0030   20.4390 H   0  0  0  0  0  0  0  0  0  0  0  0
   49.7010   54.8880   19.6390 C   0  0  0  0  0  0  0  0  0  0  0  0
   48.8740   56.0520   20.1900 C   0  0  0  0  0  0  0  0  0  0  0  0
   48.9610   54.2490   18.4620 C   0  0  0  0  0  0  0  0  0  0  0  0
   51.8260   54.9450   21.6600 C   0  0  0  0  0  0  0  0  0  0  0  0
   52.2140   55.8860   22.1630 N   0  0  0  0  0  0  0  0  0  0  0  0
   52.1050   53.4800   19.7140 C   0  0  0  0  0  0  0  0  0  0  0  0
   52.5440   52.0160   19.6510 C   0  0  0  0  0  0  0  0  0  0  0  0
   51.6940   51.1890   18.2780 S   0  0  0  0  0  0  0  0  0  0  0  0
   50.0790   50.7370   18.9700 C   0  0  0  0  0  0  0  0  0  0  0  0
   50.5290   49.0120   20.7200 C   0  0  0  0  0  0  0  0  0  0  0  0
   50.0590   49.2390   19.2820 C   0  0  0  0  0  0  0  0  0  0  0  0
  1 10  1  6  0  0  0
  1  8  1  0  0  0  0
  1  2  1  0  0  0  0
  3  1  1  0  0  0  0
  4  3  1  0  0  0  0
  5  6  1  0  0  0  0
  5  3  1  0  0  0  0
  7  5  1  0  0  0  0
  8  9  3  0  0  0  0
 11 10  1  0  0  0  0
 12 13  1  0  0  0  0
 12 11  1  0  0  0  0
 13 15  1  0  0  0  0
 15 14  1  0  0  0  0
M  END
>  <MODEL>
6

>  <REMARK>
  Name = ZINC45217183
                            x       y       z     vdW  Elec       q    Type
                         _______ _______ _______ _____ _____    ______ ____

>  <TORSDO>
F 8

>  <minimizedAffinity>
-4.6685166204649251

$$$$
ZINC45217183
 OpenBabel10211212513D

 15 14  0  0  1  0  0  0  0  0999 V2000
   48.9320   49.8490   17.5410 C   0  0  1  0  0  0  0  0  0  0  0  0
   48.6370   51.3010   17.1580 C   0  0  0  0  0  0  0  0  0  0  0  0
   49.3960   49.1140   16.3570 N   0  0  0  0  0  0  0  0  0  0  0  0
   50.2360   48.5930   16.5610 H   0  0  0  0  0  0  0  0  0  0  0  0
   49.6020   50.0230   15.2210 C   0  0  0  0  0  0  0  0  0  0  0  0
   48.5210   49.7720   14.1670 C   0  0  0  0  0  0  0  0  0  0  0  0
   50.9810   49.7700   14.6090 C   0  0  0  0  0  0  0  0  0  0  0  0
   49.9760   49.8180   18.5790 C   0  0  0  0  0  0  0  0  0  0  0  0
   50.7810   49.7930   19.3800 N   0  0  0  0  0  0  0  0  0  0  0  0
   47.6580   49.1950   18.0810 C   0  0  0  0  0  0  0  0  0  0  0  0
   46.4380   49.8030   17.3870 C   0  0  0  0  0  0  0  0  0  0  0  0
   45.7340   48.5930   16.2330 S   0  0  0  0  0  0  0  0  0  0  0  0
   45.2580   47.2000   17.2940 C   0  0  0  0  0  0  0  0  0  0  0  0
   44.6740   47.0050   19.7150 C   0  0  0  0  0  0  0  0  0  0  0  0
   44.3210   47.6970   18.3970 C   0  0  0  0  0  0  0  0  0  0  0  0
  1  3  1  6  0  0  0
  1 10  1  0  0  0  0
  1  8  1  0  0  0  0
  2  1  1  0  0  0  0
  3  4  1  0  0  0  0
  5  3  1  0  0  0  0
  6  5  1  0  0  0  0
  7  5  1  0  0  0  0
  8  9  3  0  0  0  0
 11 10  1  0  0  0  0
 12 13  1  0  0  0  0
 12 11  1  0  0  0  0
 13 15  1  0  0  0  0
 15 14  1  0  0  0  0
M  END
>  <MODEL>
7

>  <REMARK>
  Name = ZINC45217183
                            x       y       z     vdW  Elec       q    Type
                         _______ _______ _______ _____ _____    ______ ____

>  <TORSDO>
F 8

>  <minimizedAffinity>
-4.6312838425788314

$$$$
ZINC45217183
 OpenBabel10211212513D

 15 14  0  0  1  0  0  0  0  0999 V2000
   50.7660   50.6880   18.7810 C   0  0  1  0  0  0  0  0  0  0  0  0
   49.7690   51.7980   18.4410 C   0  0  0  0  0  0  0  0  0  0  0  0
   50.1570   49.3800   18.5070 N   0  0  0  0  0  0  0  0  0  0  0  0
   50.7700   48.8050   17.9490 H   0  0  0  0  0  0  0  0  0  0  0  0
   48.8470   49.5350   17.8610 C   0  0  0  0  0  0  0  0  0  0  0  0
   47.7750   48.8520   18.7130 C   0  0  0  0  0  0  0  0  0  0  0  0
   48.8830   48.8900   16.4740 C   0  0  0  0  0  0  0  0  0  0  0  0
   51.9770   50.8480   17.9590 C   0  0  0  0  0  0  0  0  0  0  0  0
   52.9120   50.9720   17.3240 N   0  0  0  0  0  0  0  0  0  0  0  0
   51.1420   50.7760   20.2620 C   0  0  0  0  0  0  0  0  0  0  0  0
   51.9720   52.0380   20.5040 C   0  0  0  0  0  0  0  0  0  0  0  0
   51.3160   52.9280   21.9430 S   0  0  0  0  0  0  0  0  0  0  0  0
   51.1680   54.6420   21.3690 C   0  0  0  0  0  0  0  0  0  0  0  0
   51.4760   57.0390   22.0040 C   0  0  0  0  0  0  0  0  0  0  0  0
   51.6400   55.5910   22.4720 C   0  0  0  0  0  0  0  0  0  0  0  0
  1  8  1  6  0  0  0
  1 10  1  0  0  0  0
  2  1  1  0  0  0  0
  3  1  1  0  0  0  0
  4  3  1  0  0  0  0
  5  3  1  0  0  0  0
  5  6  1  0  0  0  0
  7  5  1  0  0  0  0
  9  8  3  0  0  0  0
 10 11  1  0  0  0  0
 11 12  1  0  0  0  0
 13 12  1  0  0  0  0
 13 15  1  0  0  0  0
 14 15  1  0  0  0  0
M  END
>  <MODEL>
8

>  <REMARK>
  Name = ZINC45217183
                            x       y       z     vdW  Elec       q    Type
                         _______ _______ _______ _____ _____    ______ ____

>  <TORSDO>
F 8

>  <minimizedAffinity>
-4.5481683764402785

$$$$
ZINC45217183
 OpenBabel10211212513D

 15 14  0  0  1  0  0  0  0  0999 V2000
   47.2690   48.4280   17.5240 C   0  0  1  0  0  0  0  0  0  0  0  0
   48.2280   47.3190   17.0850 C   0  0  0  0  0  0  0  0  0  0  0  0
   46.6660   49.0520   16.3380 N   0  0  0  0  0  0  0  0  0  0  0  0
   45.6780   48.8530   16.2880 H   0  0  0  0  0  0  0  0  0  0  0  0
   47.3530   48.6240   15.1120 C   0  0  0  0  0  0  0  0  0  0  0  0
   48.1650   49.7940   14.5500 C   0  0  0  0  0  0  0  0  0  0  0  0
   46.3190   48.1770   14.0780 C   0  0  0  0  0  0  0  0  0  0  0  0
   46.2080   47.8530   18.3690 C   0  0  0  0  0  0  0  0  0  0  0  0
   45.3900   47.4090   19.0200 N   0  0  0  0  0  0  0  0  0  0  0  0
   48.0390   49.4830   18.3210 C   0  0  0  0  0  0  0  0  0  0  0  0
   49.3300   48.8690   18.8650 C   0  0  0  0  0  0  0  0  0  0  0  0
   50.5650   50.1750   19.1080 S   0  0  0  0  0  0  0  0  0  0  0  0
   50.3680   51.2410   17.6530 C   0  0  0  0  0  0  0  0  0  0  0  0
   48.6750   53.0710   17.4970 C   0  0  0  0  0  0  0  0  0  0  0  0
   50.0180   52.6600   18.1040 C   0  0  0  0  0  0  0  0  0  0  0  0
  1  3  1  6  0  0  0
  1 10  1  0  0  0  0
  1  8  1  0  0  0  0
  2  1  1  0  0  0  0
  4  3  1  0  0  0  0
  5  3  1  0  0  0  0
  6  5  1  0  0  0  0
  7  5  1  0  0  0  0
  8  9  3  0  0  0  0
 10 11  1  0  0  0  0
 11 12  1  0  0  0  0
 13 15  1  0  0  0  0
 13 12  1  0  0  0  0
 14 15  1  0  0  0  0
M  END
>  <MODEL>
9

>  <REMARK>
  Name = ZINC45217183
                            x       y       z     vdW  Elec       q    Type
                         _______ _______ _______ _____ _____    ______ ____

>  <TORSDO>
F 8

>  <minimizedAffinity>
-4.5078926483058774

$$$$
ZINC66759665
 OpenBabel10211212523D

 17 17  0  0  1  0  0  0  0  0999 V2000
   51.8490   52.8500   19.1910 C   0  0  0  0  0  0  0  0  0  0  0  0
   50.5310   53.0660   19.3710 N   0  0  0  0  0  0  0  0  0  0  0  0
   50.0290   52.5130   19.9910 H   0  0  0  0  0  0  0  0  0  0  0  0
   52.4750   53.5420   18.4170 O   0  0  0  0  0  0  0  0  0  0  0  0
   51.9520   51.6530   21.3610 C   0  0  0  0  0  0  0  0  0  0  0  0
   52.5440   51.7520   19.9540 C   0  0  1  0  0  0  0  0  0  0  0  0
   52.3480   50.4210   19.2240 C   0  0  0  0  0  0  0  0  0  0  0  0
   51.1350   49.4130   20.1200 S   0  0  0  0  0  0  0  0  0  0  0  0
   49.6650   49.4490   19.0580 C   0  0  0  0  0  0  0  0  0  0  0  0
   49.8540   54.1330   18.6310 C   0  0  0  0  0  0  0  0  0  0  0  0
   48.6880   54.6710   19.4630 C   0  0  0  0  0  0  0  0  0  0  0  0
   48.9920   56.1050   19.9000 C   0  0  0  0  0  0  0  0  0  0  0  0
   47.6870   56.8190   20.2560 C   0  0  0  0  0  0  0  0  0  0  0  0
   47.9910   58.2520   20.6930 C   0  0  0  0  0  0  0  0  0  0  0  0
   48.9090   58.2280   21.9170 C   0  0  0  0  0  0  0  0  0  0  0  0
   50.2140   57.5150   21.5610 C   0  0  0  0  0  0  0  0  0  0  0  0
   49.9100   56.0820   21.1240 C   0  0  0  0  0  0  0  0  0  0  0  0
  1  2  1  0  0  0  0
  2  3  1  0  0  0  0
  4  1  2  0  0  0  0
  6  1  1  6  0  0  0
  6  5  1  0  0  0  0
  7  6  1  0  0  0  0
  7  8  1  0  0  0  0
  9  8  1  0  0  0  0
 10  2  1  0  0  0  0
 10 11  1  0  0  0  0
 11 12  1  0  0  0  0
 12 13  1  0  0  0  0
 12 17  1  0  0  0  0
 13 14  1  0  0  0  0
 14 15  1  0  0  0  0
 16 15  1  0  0  0  0
 17 16  1  0  0  0  0
M  END
>  <MODEL>
1

>  <REMARK>
  Name = ZINC66759665
                            x       y       z     vdW  Elec       q    Type
                         _______ _______ _______ _____ _____    ______ ____

>  <TORSDO>
F 6

>  <minimizedAffinity>
-6.4284696530707439

$$$$
ZINC66759665
 OpenBabel10211212523D

 17 17  0  0  1  0  0  0  0  0999 V2000
   49.8740   52.0220   18.1760 C   0  0  0  0  0  0  0  0  0  0  0  0
   50.1740   53.2870   18.5300 N   0  0  0  0  0  0  0  0  0  0  0  0
   51.0120   53.4790   18.9800 H   0  0  0  0  0  0  0  0  0  0  0  0
   48.8260   51.7830   17.6140 O   0  0  0  0  0  0  0  0  0  0  0  0
   52.2640   51.3600   18.1470 C   0  0  0  0  0  0  0  0  0  0  0  0
   50.8410   50.9050   18.4760 C   0  0  1  0  0  0  0  0  0  0  0  0
   50.7530   50.5400   19.9590 C   0  0  0  0  0  0  0  0  0  0  0  0
   52.2400   51.1260   20.8170 S   0  0  0  0  0  0  0  0  0  0  0  0
   51.6570   52.5430   21.7860 C   0  0  0  0  0  0  0  0  0  0  0  0
   49.2350   54.3730   18.2380 C   0  0  0  0  0  0  0  0  0  0  0  0
   48.4790   54.7510   19.5140 C   0  0  0  0  0  0  0  0  0  0  0  0
   48.8670   56.1690   19.9350 C   0  0  0  0  0  0  0  0  0  0  0  0
   47.6100   56.9450   20.3340 C   0  0  0  0  0  0  0  0  0  0  0  0
   47.9970   58.3630   20.7550 C   0  0  0  0  0  0  0  0  0  0  0  0
   48.9560   58.2980   21.9460 C   0  0  0  0  0  0  0  0  0  0  0  0
   50.2130   57.5230   21.5460 C   0  0  0  0  0  0  0  0  0  0  0  0
   49.8250   56.1040   21.1250 C   0  0  0  0  0  0  0  0  0  0  0  0
  1  6  1  0  0  0  0
  1  2  1  0  0  0  0
  2  3  1  0  0  0  0
  4  1  2  0  0  0  0
  6  5  1  1  0  0  0
  6  7  1  0  0  0  0
  7  8  1  0  0  0  0
  8  9  1  0  0  0  0
 10  2  1  0  0  0  0
 10 11  1  0  0  0  0
 11 12  1  0  0  0  0
 12 13  1  0  0  0  0
 12 17  1  0  0  0  0
 13 14  1  0  0  0  0
 14 15  1  0  0  0  0
 16 15  1  0  0  0  0
 17 16  1  0  0  0  0
M  END
>  <MODEL>
2

>  <REMARK>
  Name = ZINC66759665
                            x       y       z     vdW  Elec       q    Type
                         _______ _______ _______ _____ _____    ______ ____

>  <TORSDO>
F 6

>  <minimizedAffinity>
-6.2519307639472874

$$$$
ZINC66759665
 OpenBabel10211212523D

 17 17  0  0  1  0  0  0  0  0999 V2000
   50.3300   51.5650   19.1800 C   0  0  0  0  0  0  0  0  0  0  0  0
   49.9410   52.6530   18.4870 N   0  0  0  0  0  0  0  0  0  0  0  0
   49.5150   52.5510   17.6210 H   0  0  0  0  0  0  0  0  0  0  0  0
   50.8610   51.6940   20.2630 O   0  0  0  0  0  0  0  0  0  0  0  0
   50.0960   49.1620   19.7460 C   0  0  0  0  0  0  0  0  0  0  0  0
   50.1030   50.1880   18.6110 C   0  0  1  0  0  0  0  0  0  0  0  0
   48.7580   50.1520   17.8830 C   0  0  0  0  0  0  0  0  0  0  0  0
   48.2240   48.4300   17.6820 S   0  0  0  0  0  0  0  0  0  0  0  0
   46.6890   48.3320   18.6430 C   0  0  0  0  0  0  0  0  0  0  0  0
   50.1610   53.9910   19.0400 C   0  0  0  0  0  0  0  0  0  0  0  0
   48.8110   54.6450   19.3470 C   0  0  0  0  0  0  0  0  0  0  0  0
   49.0370   56.0850   19.8100 C   0  0  0  0  0  0  0  0  0  0  0  0
   47.6980   56.7100   20.2060 C   0  0  0  0  0  0  0  0  0  0  0  0
   47.9230   58.1500   20.6710 C   0  0  0  0  0  0  0  0  0  0  0  0
   48.8650   58.1560   21.8760 C   0  0  0  0  0  0  0  0  0  0  0  0
   50.2040   57.5320   21.4800 C   0  0  0  0  0  0  0  0  0  0  0  0
   49.9780   56.0920   21.0160 C   0  0  0  0  0  0  0  0  0  0  0  0
  1  4  2  0  0  0  0
  2 10  1  0  0  0  0
  2  1  1  0  0  0  0
  3  2  1  0  0  0  0
  6  7  1  1  0  0  0
  6  1  1  0  0  0  0
  6  5  1  0  0  0  0
  8  7  1  0  0  0  0
  8  9  1  0  0  0  0
 10 11  1  0  0  0  0
 11 12  1  0  0  0  0
 12 13  1  0  0  0  0
 12 17  1  0  0  0  0
 13 14  1  0  0  0  0
 14 15  1  0  0  0  0
 16 15  1  0  0  0  0
 17 16  1  0  0  0  0
M  END
>  <MODEL>
3

>  <REMARK>
  Name = ZINC66759665
                            x       y       z     vdW  Elec       q    Type
                         _______ _______ _______ _____ _____    ______ ____

>  <TORSDO>
F 6

>  <minimizedAffinity>
-6.1676098913145463

$$$$
ZINC66759665
 OpenBabel10211212523D

 17 17  0  0  1  0  0  0  0  0999 V2000
   51.7320   50.9040   20.6130 C   0  0  0  0  0  0  0  0  0  0  0  0
   50.9930   51.8640   21.2010 N   0  0  0  0  0  0  0  0  0  0  0  0
   50.0240   51.8110   21.1820 H   0  0  0  0  0  0  0  0  0  0  0  0
   52.9430   50.9710   20.6360 O   0  0  0  0  0  0  0  0  0  0  0  0
   50.4540   48.8100   20.9800 C   0  0  0  0  0  0  0  0  0  0  0  0
   51.0550   49.7450   19.9270 C   0  0  1  0  0  0  0  0  0  0  0  0
   49.9430   50.2690   19.0170 C   0  0  0  0  0  0  0  0  0  0  0  0
   50.6730   50.9760   17.5150 S   0  0  0  0  0  0  0  0  0  0  0  0
   49.5600   50.4340   16.1890 C   0  0  0  0  0  0  0  0  0  0  0  0
   51.6510   52.9910   21.8670 C   0  0  0  0  0  0  0  0  0  0  0  0
   51.6870   54.1930   20.9210 C   0  0  0  0  0  0  0  0  0  0  0  0
   50.4560   55.0680   21.1620 C   0  0  0  0  0  0  0  0  0  0  0  0
   50.9000   56.4870   21.5230 C   0  0  0  0  0  0  0  0  0  0  0  0
   49.6690   57.3620   21.7640 C   0  0  0  0  0  0  0  0  0  0  0  0
   48.8160   57.4030   20.4940 C   0  0  0  0  0  0  0  0  0  0  0  0
   48.3710   55.9840   20.1340 C   0  0  0  0  0  0  0  0  0  0  0  0
   49.6020   55.1090   19.8930 C   0  0  0  0  0  0  0  0  0  0  0  0
  1  4  2  0  0  0  0
  1  2  1  0  0  0  0
  2 10  1  0  0  0  0
  3  2  1  0  0  0  0
  6  7  1  1  0  0  0
  6  1  1  0  0  0  0
  6  5  1  0  0  0  0
  8  7  1  0  0  0  0
  9  8  1  0  0  0  0
 11 12  1  0  0  0  0
 11 10  1  0  0  0  0
 12 13  1  0  0  0  0
 13 14  1  0  0  0  0
 15 14  1  0  0  0  0
 16 15  1  0  0  0  0
 17 16  1  0  0  0  0
 17 12  1  0  0  0  0
M  END
>  <MODEL>
4

>  <REMARK>
  Name = ZINC66759665
                            x       y       z     vdW  Elec       q    Type
                         _______ _______ _______ _____ _____    ______ ____

>  <TORSDO>
F 6

>  <minimizedAffinity>
-6.0942111584935601

$$$$
ZINC66759665
 OpenBabel10211212523D

 17 17  0  0  1  0  0  0  0  0999 V2000
   51.1100   50.2050   20.3860 C   0  0  0  0  0  0  0  0  0  0  0  0
   50.6170   50.1240   19.1350 N   0  0  0  0  0  0  0  0  0  0  0  0
   50.9760   50.6910   18.4340 H   0  0  0  0  0  0  0  0  0  0  0  0
   50.6600   49.4970   21.2620 O   0  0  0  0  0  0  0  0  0  0  0  0
   52.5930   51.9480   19.4300 C   0  0  0  0  0  0  0  0  0  0  0  0
   52.2220   51.1740   20.6970 C   0  0  1  0  0  0  0  0  0  0  0  0
   51.7570   52.1550   21.7750 C   0  0  0  0  0  0  0  0  0  0  0  0
   50.7920   53.4860   21.0070 S   0  0  0  0  0  0  0  0  0  0  0  0
   51.5660   55.0040   21.6310 C   0  0  0  0  0  0  0  0  0  0  0  0
   49.5370   49.1820   18.8320 C   0  0  0  0  0  0  0  0  0  0  0  0
   48.4060   49.9180   18.1090 C   0  0  0  0  0  0  0  0  0  0  0  0
   47.3120   48.9190   17.7270 C   0  0  0  0  0  0  0  0  0  0  0  0
   46.7210   48.2990   18.9940 C   0  0  0  0  0  0  0  0  0  0  0  0
   45.6260   47.3010   18.6120 C   0  0  0  0  0  0  0  0  0  0  0  0
   44.5240   48.0250   17.8360 C   0  0  0  0  0  0  0  0  0  0  0  0
   45.1150   48.6440   16.5690 C   0  0  0  0  0  0  0  0  0  0  0  0
   46.2090   49.6430   16.9520 C   0  0  0  0  0  0  0  0  0  0  0  0
  1  6  1  0  0  0  0
  1  4  2  0  0  0  0
  2  1  1  0  0  0  0
  3  2  1  0  0  0  0
  6  5  1  6  0  0  0
  6  7  1  0  0  0  0
  8  9  1  0  0  0  0
  8  7  1  0  0  0  0
 10  2  1  0  0  0  0
 11 10  1  0  0  0  0
 12 11  1  0  0  0  0
 12 13  1  0  0  0  0
 14 13  1  0  0  0  0
 15 14  1  0  0  0  0
 16 17  1  0  0  0  0
 16 15  1  0  0  0  0
 17 12  1  0  0  0  0
M  END
>  <MODEL>
5

>  <REMARK>
  Name = ZINC66759665
                            x       y       z     vdW  Elec       q    Type
                         _______ _______ _______ _____ _____    ______ ____

>  <TORSDO>
F 6

>  <minimizedAffinity>
-6.0886920737912638

$$$$
ZINC66759665
 OpenBabel10211212523D

 17 17  0  0  1  0  0  0  0  0999 V2000
   49.7720   52.8740   18.1540 C   0  0  0  0  0  0  0  0  0  0  0  0
   50.3940   51.6810   18.2170 N   0  0  0  0  0  0  0  0  0  0  0  0
   51.2390   51.5980   18.6880 H   0  0  0  0  0  0  0  0  0  0  0  0
   48.7160   52.9770   17.5660 O   0  0  0  0  0  0  0  0  0  0  0  0
   49.4680   54.5690   19.9390 C   0  0  0  0  0  0  0  0  0  0  0  0
   50.3860   54.0810   18.8170 C   0  0  1  0  0  0  0  0  0  0  0  0
   51.7490   53.7030   19.4020 C   0  0  0  0  0  0  0  0  0  0  0  0
   51.6230   53.5930   21.2080 S   0  0  0  0  0  0  0  0  0  0  0  0
   51.8930   51.8350   21.5600 C   0  0  0  0  0  0  0  0  0  0  0  0
   49.7980   50.5080   17.5730 C   0  0  0  0  0  0  0  0  0  0  0  0
   49.0940   49.6500   18.6270 C   0  0  0  0  0  0  0  0  0  0  0  0
   47.8890   48.9520   17.9930 C   0  0  0  0  0  0  0  0  0  0  0  0
   47.0280   48.3230   19.0900 C   0  0  0  0  0  0  0  0  0  0  0  0
   45.8240   47.6250   18.4570 C   0  0  0  0  0  0  0  0  0  0  0  0
   44.9920   48.6480   17.6790 C   0  0  0  0  0  0  0  0  0  0  0  0
   45.8530   49.2750   16.5820 C   0  0  0  0  0  0  0  0  0  0  0  0
   47.0580   49.9740   17.2160 C   0  0  0  0  0  0  0  0  0  0  0  0
  1  2  1  0  0  0  0
  2  3  1  0  0  0  0
  4  1  2  0  0  0  0
  6  1  1  1  0  0  0
  6  7  1  0  0  0  0
  6  5  1  0  0  0  0
  7  8  1  0  0  0  0
  8  9  1  0  0  0  0
 10  2  1  0  0  0  0
 10 11  1  0  0  0  0
 12 11  1  0  0  0  0
 12 13  1  0  0  0  0
 14 13  1  0  0  0  0
 15 14  1  0  0  0  0
 16 17  1  0  0  0  0
 16 15  1  0  0  0  0
 17 12  1  0  0  0  0
M  END
>  <MODEL>
6

>  <REMARK>
  Name = ZINC66759665
                            x       y       z     vdW  Elec       q    Type
                         _______ _______ _______ _____ _____    ______ ____

>  <TORSDO>
F 6

>  <minimizedAffinity>
-6.0048010668431182

$$$$
ZINC66759665
 OpenBabel10211212523D

 17 17  0  0  1  0  0  0  0  0999 V2000
   48.2390   52.2550   17.1700 C   0  0  0  0  0  0  0  0  0  0  0  0
   49.1780   52.8480   17.9330 N   0  0  0  0  0  0  0  0  0  0  0  0
   49.9120   52.3240   18.2940 H   0  0  0  0  0  0  0  0  0  0  0  0
   47.3230   52.9100   16.7190 O   0  0  0  0  0  0  0  0  0  0  0  0
   48.3640   50.5640   15.3610 C   0  0  0  0  0  0  0  0  0  0  0  0
   48.3280   50.7800   16.8750 C   0  0  1  0  0  0  0  0  0  0  0  0
   49.6020   50.2100   17.5020 C   0  0  0  0  0  0  0  0  0  0  0  0
   49.1590   49.0290   18.8050 S   0  0  0  0  0  0  0  0  0  0  0  0
   50.5780   49.0700   19.9350 C   0  0  0  0  0  0  0  0  0  0  0  0
   49.0930   54.2810   18.2200 C   0  0  0  0  0  0  0  0  0  0  0  0
   49.1210   54.5020   19.7340 C   0  0  0  0  0  0  0  0  0  0  0  0
   49.2180   56.0000   20.0290 C   0  0  0  0  0  0  0  0  0  0  0  0
   47.8120   56.5790   20.1990 C   0  0  0  0  0  0  0  0  0  0  0  0
   47.9080   58.0760   20.4950 C   0  0  0  0  0  0  0  0  0  0  0  0
   48.7090   58.2920   21.7810 C   0  0  0  0  0  0  0  0  0  0  0  0
   50.1140   57.7140   21.6100 C   0  0  0  0  0  0  0  0  0  0  0  0
   50.0170   56.2160   21.3150 C   0  0  0  0  0  0  0  0  0  0  0  0
  1  2  1  0  0  0  0
  2 10  1  0  0  0  0
  2  3  1  0  0  0  0
  4  1  2  0  0  0  0
  6  5  1  6  0  0  0
  6  1  1  0  0  0  0
  6  7  1  0  0  0  0
  7  8  1  0  0  0  0
  8  9  1  0  0  0  0
 10 11  1  0  0  0  0
 11 12  1  0  0  0  0
 12 13  1  0  0  0  0
 12 17  1  0  0  0  0
 13 14  1  0  0  0  0
 14 15  1  0  0  0  0
 16 15  1  0  0  0  0
 17 16  1  0  0  0  0
M  END
>  <MODEL>
7

>  <REMARK>
  Name = ZINC66759665
                            x       y       z     vdW  Elec       q    Type
                         _______ _______ _______ _____ _____    ______ ____

>  <TORSDO>
F 6

>  <minimizedAffinity>
-5.9949338772297818

$$$$
ZINC66759665
 OpenBabel10211212523D

 17 17  0  0  1  0  0  0  0  0999 V2000
   51.1250   52.4220   20.1030 C   0  0  0  0  0  0  0  0  0  0  0  0
   50.3510   51.7040   19.2650 N   0  0  0  0  0  0  0  0  0  0  0  0
   49.3850   51.7670   19.3220 H   0  0  0  0  0  0  0  0  0  0  0  0
   52.3330   52.3420   20.0310 O   0  0  0  0  0  0  0  0  0  0  0  0
   51.5530   53.8010   22.1190 C   0  0  0  0  0  0  0  0  0  0  0  0
   50.4880   53.3250   21.1280 C   0  0  1  0  0  0  0  0  0  0  0  0
   49.8680   54.5350   20.4270 C   0  0  0  0  0  0  0  0  0  0  0  0
   50.6730   56.0520   21.0120 S   0  0  0  0  0  0  0  0  0  0  0  0
   49.2900   57.1690   21.3760 C   0  0  0  0  0  0  0  0  0  0  0  0
   50.9690   50.8270   18.2680 C   0  0  0  0  0  0  0  0  0  0  0  0
   49.9580   50.5210   17.1600 C   0  0  0  0  0  0  0  0  0  0  0  0
   48.5910   50.2340   17.7830 C   0  0  0  0  0  0  0  0  0  0  0  0
   47.4980   50.4370   16.7320 C   0  0  0  0  0  0  0  0  0  0  0  0
   46.1310   50.1500   17.3540 C   0  0  0  0  0  0  0  0  0  0  0  0
   46.0930   48.7050   17.8580 C   0  0  0  0  0  0  0  0  0  0  0  0
   47.1850   48.5030   18.9100 C   0  0  0  0  0  0  0  0  0  0  0  0
   48.5520   48.7900   18.2870 C   0  0  0  0  0  0  0  0  0  0  0  0
  2  3  1  0  0  0  0
  2  1  1  0  0  0  0
  4  1  2  0  0  0  0
  6  1  1  6  0  0  0
  6  5  1  0  0  0  0
  7  8  1  0  0  0  0
  7  6  1  0  0  0  0
  8  9  1  0  0  0  0
 10  2  1  0  0  0  0
 11 12  1  0  0  0  0
 11 10  1  0  0  0  0
 12 17  1  0  0  0  0
 13 14  1  0  0  0  0
 13 12  1  0  0  0  0
 14 15  1  0  0  0  0
 15 16  1  0  0  0  0
 17 16  1  0  0  0  0
M  END
>  <MODEL>
8

>  <REMARK>
  Name = ZINC66759665
                            x       y       z     vdW  Elec       q    Type
                         _______ _______ _______ _____ _____    ______ ____

>  <TORSDO>
F 6

>  <minimizedAffinity>
-5.9127461040984093

$$$$
ZINC66759665
 OpenBabel10211212523D

 17 17  0  0  1  0  0  0  0  0999 V2000
   49.0070   51.7960   17.4650 C   0  0  0  0  0  0  0  0  0  0  0  0
   49.7930   52.7430   18.0160 N   0  0  0  0  0  0  0  0  0  0  0  0
   50.7020   52.5280   18.2760 H   0  0  0  0  0  0  0  0  0  0  0  0
   47.8710   52.0660   17.1400 O   0  0  0  0  0  0  0  0  0  0  0  0
   49.8430   49.7600   18.6070 C   0  0  0  0  0  0  0  0  0  0  0  0
   49.5420   50.4030   17.2520 C   0  0  1  0  0  0  0  0  0  0  0  0
   48.5000   49.5650   16.5100 C   0  0  0  0  0  0  0  0  0  0  0  0
   48.8910   49.5420   14.7390 S   0  0  0  0  0  0  0  0  0  0  0  0
   50.6860   49.8010   14.6830 C   0  0  0  0  0  0  0  0  0  0  0  0
   49.2730   54.0970   18.2220 C   0  0  0  0  0  0  0  0  0  0  0  0
   49.1300   54.3650   19.7220 C   0  0  0  0  0  0  0  0  0  0  0  0
   49.2350   55.8690   19.9830 C   0  0  0  0  0  0  0  0  0  0  0  0
   47.8330   56.4570   20.1530 C   0  0  0  0  0  0  0  0  0  0  0  0
   47.9370   57.9600   20.4140 C   0  0  0  0  0  0  0  0  0  0  0  0
   48.7500   58.2010   21.6890 C   0  0  0  0  0  0  0  0  0  0  0  0
   50.1510   57.6140   21.5180 C   0  0  0  0  0  0  0  0  0  0  0  0
   50.0470   56.1100   21.2570 C   0  0  0  0  0  0  0  0  0  0  0  0
  1  2  1  0  0  0  0
  2 10  1  0  0  0  0
  2  3  1  0  0  0  0
  4  1  2  0  0  0  0
  6  7  1  1  0  0  0
  6  1  1  0  0  0  0
  6  5  1  0  0  0  0
  8  7  1  0  0  0  0
  9  8  1  0  0  0  0
 10 11  1  0  0  0  0
 11 12  1  0  0  0  0
 12 13  1  0  0  0  0
 12 17  1  0  0  0  0
 13 14  1  0  0  0  0
 14 15  1  0  0  0  0
 16 15  1  0  0  0  0
 17 16  1  0  0  0  0
M  END
>  <MODEL>
9

>  <REMARK>
  Name = ZINC66759665
                            x       y       z     vdW  Elec       q    Type
                         _______ _______ _______ _____ _____    ______ ____

>  <TORSDO>
F 6

>  <minimizedAffinity>
-5.8458401348004196

$$$$
ZINC50515763
 OpenBabel10211212533D

 24 25  0  0  0  0  0  0  0  0999 V2000
   52.0220   55.4360   20.8930 N   0  0  0  0  0  0  0  0  0  0  0  0
   51.9530   54.0670   20.6480 C   0  0  0  0  0  0  0  0  0  0  0  0
   52.0250   53.5910   19.3430 C   0  0  0  0  0  0  0  0  0  0  0  0
   51.9570   52.2380   19.0960 C   0  0  0  0  0  0  0  0  0  0  0  0
   51.8160   51.3410   20.1590 C   0  0  0  0  0  0  0  0  0  0  0  0
   51.7430   51.8210   21.4710 C   0  0  0  0  0  0  0  0  0  0  0  0
   51.8170   53.1760   21.7110 C   0  0  0  0  0  0  0  0  0  0  0  0
   51.7520   53.6410   22.9780 F   0  0  0  0  0  0  0  0  0  0  0  0
   51.7430   49.8930   19.8980 C   0  0  0  0  0  0  0  0  0  0  0  0
   50.2200   49.1300   19.7260 S   0  0  0  0  0  0  0  0  0  0  0  0
   52.8750   49.1680   19.7960 N   0  0  0  0  0  0  0  0  0  0  0  0
   52.8980   48.3820   19.2280 H   0  0  0  0  0  0  0  0  0  0  0  0
   53.6670   49.4330   20.2890 H   0  0  0  0  0  0  0  0  0  0  0  0
   51.2180   56.0300   21.9650 C   0  0  0  0  0  0  0  0  0  0  0  0
   47.5660   57.5360   20.3400 C   0  0  0  0  0  0  0  0  0  0  0  0
   48.0470   56.3050   19.9340 C   0  0  0  0  0  0  0  0  0  0  0  0
   49.2290   55.8180   20.4600 C   0  0  0  0  0  0  0  0  0  0  0  0
   49.9300   56.5610   21.3900 C   0  0  0  0  0  0  0  0  0  0  0  0
   49.4490   57.7930   21.7960 C   0  0  0  0  0  0  0  0  0  0  0  0
   48.2670   58.2790   21.2710 C   0  0  0  0  0  0  0  0  0  0  0  0
   52.8980   56.2820   20.0790 C   0  0  0  0  0  0  0  0  0  0  0  0
   53.2570   57.5470   20.8630 C   0  0  0  0  0  0  0  0  0  0  0  0
   54.5450   57.3870   21.4610 O   0  0  0  0  0  0  0  0  0  0  0  0
   55.1690   56.8840   20.9200 H   0  0  0  0  0  0  0  0  0  0  0  0
  1 14  1  0  0  0  0
  2  1  1  0  0  0  0
  2  7  2  0  0  0  0
  3  2  1  0  0  0  0
  4  3  2  0  0  0  0
  4  5  1  0  0  0  0
  5  6  2  0  0  0  0
  6  7  1  0  0  0  0
  7  8  1  0  0  0  0
  9  5  1  0  0  0  0
 10  9  2  0  0  0  0
 11  9  1  0  0  0  0
 11 13  1  0  0  0  0
 12 11  1  0  0  0  0
 15 20  1  0  0  0  0
 16 15  2  0  0  0  0
 16 17  1  0  0  0  0
 17 18  2  0  0  0  0
 18 19  1  0  0  0  0
 18 14  1  0  0  0  0
 20 19  2  0  0  0  0
 21 22  1  0  0  0  0
 21  1  1  0  0  0  0
 22 23  1  0  0  0  0
 24 23  1  0  0  0  0
M  END
>  <MODEL>
1

>  <REMARK>
  Name = ZINC50515763
                            x       y       z     vdW  Elec       q    Type
                         _______ _______ _______ _____ _____    ______ ____

>  <TORSDO>
F 8

>  <minimizedAffinity>
-8.4677108441867457

$$$$
ZINC50515763
 OpenBabel10211212533D

 24 25  0  0  0  0  0  0  0  0999 V2000
   48.6410   49.9310   16.9240 N   0  0  0  0  0  0  0  0  0  0  0  0
   49.3990   50.4060   17.9920 C   0  0  0  0  0  0  0  0  0  0  0  0
   49.6410   51.7700   18.1200 C   0  0  0  0  0  0  0  0  0  0  0  0
   50.3900   52.2420   19.1740 C   0  0  0  0  0  0  0  0  0  0  0  0
   50.9080   51.3500   20.1180 C   0  0  0  0  0  0  0  0  0  0  0  0
   50.6640   49.9790   19.9870 C   0  0  0  0  0  0  0  0  0  0  0  0
   49.9090   49.5130   18.9320 C   0  0  0  0  0  0  0  0  0  0  0  0
   49.6690   48.1890   18.8080 F   0  0  0  0  0  0  0  0  0  0  0  0
   51.7100   51.8530   21.2460 C   0  0  0  0  0  0  0  0  0  0  0  0
   51.5130   53.4670   21.7850 S   0  0  0  0  0  0  0  0  0  0  0  0
   52.6000   51.0430   21.8550 N   0  0  0  0  0  0  0  0  0  0  0  0
   52.3940   50.6610   22.7220 H   0  0  0  0  0  0  0  0  0  0  0  0
   53.4450   50.8420   21.4240 H   0  0  0  0  0  0  0  0  0  0  0  0
   47.2410   50.3390   16.7810 C   0  0  0  0  0  0  0  0  0  0  0  0
   44.6910   47.1430   18.0180 C   0  0  0  0  0  0  0  0  0  0  0  0
   45.6590   47.6270   18.8790 C   0  0  0  0  0  0  0  0  0  0  0  0
   46.4840   48.6610   18.4780 C   0  0  0  0  0  0  0  0  0  0  0  0
   46.3420   49.2110   17.2180 C   0  0  0  0  0  0  0  0  0  0  0  0
   45.3740   48.7260   16.3570 C   0  0  0  0  0  0  0  0  0  0  0  0
   44.5480   47.6930   16.7580 C   0  0  0  0  0  0  0  0  0  0  0  0
   49.2430   49.0240   15.9440 C   0  0  0  0  0  0  0  0  0  0  0  0
   50.1300   49.8230   14.9870 C   0  0  0  0  0  0  0  0  0  0  0  0
   51.1910   48.9910   14.5140 O   0  0  0  0  0  0  0  0  0  0  0  0
   51.3650   48.2210   15.0720 H   0  0  0  0  0  0  0  0  0  0  0  0
  1  2  1  0  0  0  0
  2  3  2  0  0  0  0
  2  7  1  0  0  0  0
  3  4  1  0  0  0  0
  4  5  2  0  0  0  0
  5  9  1  0  0  0  0
  6  5  1  0  0  0  0
  7  6  2  0  0  0  0
  8  7  1  0  0  0  0
  9 10  2  0  0  0  0
  9 11  1  0  0  0  0
 11 12  1  0  0  0  0
 13 11  1  0  0  0  0
 14  1  1  0  0  0  0
 14 18  1  0  0  0  0
 15 16  2  0  0  0  0
 17 16  1  0  0  0  0
 18 17  2  0  0  0  0
 19 20  2  0  0  0  0
 19 18  1  0  0  0  0
 20 15  1  0  0  0  0
 21  1  1  0  0  0  0
 22 21  1  0  0  0  0
 23 22  1  0  0  0  0
 23 24  1  0  0  0  0
M  END
>  <MODEL>
2

>  <REMARK>
  Name = ZINC50515763
                            x       y       z     vdW  Elec       q    Type
                         _______ _______ _______ _____ _____    ______ ____

>  <TORSDO>
F 8

>  <minimizedAffinity>
-8.3055099746718959

$$$$
ZINC50515763
 OpenBabel10211212533D

 24 25  0  0  0  0  0  0  0  0999 V2000
   50.7610   53.0370   19.5670 N   0  0  0  0  0  0  0  0  0  0  0  0
   50.1360   51.8740   19.1230 C   0  0  0  0  0  0  0  0  0  0  0  0
   49.2080   51.9370   18.0890 C   0  0  0  0  0  0  0  0  0  0  0  0
   48.5890   50.7890   17.6470 C   0  0  0  0  0  0  0  0  0  0  0  0
   48.8940   49.5590   18.2380 C   0  0  0  0  0  0  0  0  0  0  0  0
   49.8270   49.4990   19.2780 C   0  0  0  0  0  0  0  0  0  0  0  0
   50.4470   50.6510   19.7120 C   0  0  0  0  0  0  0  0  0  0  0  0
   51.3540   50.5930   20.7130 F   0  0  0  0  0  0  0  0  0  0  0  0
   48.2320   48.3300   17.7680 C   0  0  0  0  0  0  0  0  0  0  0  0
   46.5830   48.0510   18.1350 S   0  0  0  0  0  0  0  0  0  0  0  0
   48.9250   47.4240   17.0490 N   0  0  0  0  0  0  0  0  0  0  0  0
   48.6010   47.1450   16.1790 H   0  0  0  0  0  0  0  0  0  0  0  0
   49.7480   47.0530   17.4020 H   0  0  0  0  0  0  0  0  0  0  0  0
   50.4700   53.5610   20.9040 C   0  0  0  0  0  0  0  0  0  0  0  0
   48.6660   57.4180   20.5560 C   0  0  0  0  0  0  0  0  0  0  0  0
   49.8220   57.2600   21.2980 C   0  0  0  0  0  0  0  0  0  0  0  0
   50.4050   56.0120   21.4110 C   0  0  0  0  0  0  0  0  0  0  0  0
   49.8330   54.9220   20.7820 C   0  0  0  0  0  0  0  0  0  0  0  0
   48.6770   55.0800   20.0400 C   0  0  0  0  0  0  0  0  0  0  0  0
   48.0950   56.3280   19.9260 C   0  0  0  0  0  0  0  0  0  0  0  0
   51.7090   53.7370   18.6960 C   0  0  0  0  0  0  0  0  0  0  0  0
   53.0440   52.9880   18.6890 C   0  0  0  0  0  0  0  0  0  0  0  0
   53.4090   52.6790   17.3430 O   0  0  0  0  0  0  0  0  0  0  0  0
   52.6800   52.7530   16.7120 H   0  0  0  0  0  0  0  0  0  0  0  0
  1 14  1  0  0  0  0
  2  1  1  0  0  0  0
  2  7  2  0  0  0  0
  3  2  1  0  0  0  0
  4  3  2  0  0  0  0
  4  5  1  0  0  0  0
  5  6  2  0  0  0  0
  6  7  1  0  0  0  0
  7  8  1  0  0  0  0
  9 10  2  0  0  0  0
  9  5  1  0  0  0  0
 11 13  1  0  0  0  0
 11  9  1  0  0  0  0
 12 11  1  0  0  0  0
 15 16  2  0  0  0  0
 16 17  1  0  0  0  0
 18 14  1  0  0  0  0
 18 17  2  0  0  0  0
 19 18  1  0  0  0  0
 20 19  2  0  0  0  0
 20 15  1  0  0  0  0
 21  1  1  0  0  0  0
 22 21  1  0  0  0  0
 23 22  1  0  0  0  0
 24 23  1  0  0  0  0
M  END
>  <MODEL>
3

>  <REMARK>
  Name = ZINC50515763
                            x       y       z     vdW  Elec       q    Type
                         _______ _______ _______ _____ _____    ______ ____

>  <TORSDO>
F 8

>  <minimizedAffinity>
-7.9746208047743332

$$$$
ZINC50515763
 OpenBabel10211212533D

 24 25  0  0  0  0  0  0  0  0999 V2000
   50.5810   53.3970   19.3240 N   0  0  0  0  0  0  0  0  0  0  0  0
   49.8080   52.4950   18.5970 C   0  0  0  0  0  0  0  0  0  0  0  0
   49.8760   51.1350   18.8820 C   0  0  0  0  0  0  0  0  0  0  0  0
   49.1130   50.2410   18.1650 C   0  0  0  0  0  0  0  0  0  0  0  0
   48.2670   50.7000   17.1510 C   0  0  0  0  0  0  0  0  0  0  0  0
   48.2000   52.0670   16.8660 C   0  0  0  0  0  0  0  0  0  0  0  0
   48.9630   52.9580   17.5900 C   0  0  0  0  0  0  0  0  0  0  0  0
   48.8940   54.2800   17.3200 F   0  0  0  0  0  0  0  0  0  0  0  0
   47.4500   49.7440   16.3830 C   0  0  0  0  0  0  0  0  0  0  0  0
   48.0750   49.0390   14.9530 S   0  0  0  0  0  0  0  0  0  0  0  0
   46.2100   49.4260   16.8050 N   0  0  0  0  0  0  0  0  0  0  0  0
   45.9680   48.4980   16.9440 H   0  0  0  0  0  0  0  0  0  0  0  0
   45.5600   50.1260   16.9710 H   0  0  0  0  0  0  0  0  0  0  0  0
   50.2350   53.7060   20.7140 C   0  0  0  0  0  0  0  0  0  0  0  0
   48.8990   57.7540   20.9860 C   0  0  0  0  0  0  0  0  0  0  0  0
   48.1550   56.8270   20.2800 C   0  0  0  0  0  0  0  0  0  0  0  0
   48.5880   55.5170   20.1920 C   0  0  0  0  0  0  0  0  0  0  0  0
   49.7640   55.1340   20.8090 C   0  0  0  0  0  0  0  0  0  0  0  0
   50.5080   56.0620   21.5150 C   0  0  0  0  0  0  0  0  0  0  0  0
   50.0750   57.3710   21.6040 C   0  0  0  0  0  0  0  0  0  0  0  0
   51.7400   54.0380   18.6980 C   0  0  0  0  0  0  0  0  0  0  0  0
   52.9470   53.1000   18.7780 C   0  0  0  0  0  0  0  0  0  0  0  0
   53.2790   52.6390   17.4670 O   0  0  0  0  0  0  0  0  0  0  0  0
   52.6870   51.9520   17.1300 H   0  0  0  0  0  0  0  0  0  0  0  0
  1 14  1  0  0  0  0
  2  3  1  0  0  0  0
  2  1  1  0  0  0  0
  4  3  2  0  0  0  0
  5  4  1  0  0  0  0
  6  5  2  0  0  0  0
  6  7  1  0  0  0  0
  7  2  2  0  0  0  0
  8  7  1  0  0  0  0
  9 11  1  0  0  0  0
  9  5  1  0  0  0  0
 10  9  2  0  0  0  0
 11 12  1  0  0  0  0
 11 13  1  0  0  0  0
 14 18  1  0  0  0  0
 15 20  2  0  0  0  0
 16 15  1  0  0  0  0
 17 16  2  0  0  0  0
 17 18  1  0  0  0  0
 18 19  2  0  0  0  0
 19 20  1  0  0  0  0
 21 22  1  0  0  0  0
 21  1  1  0  0  0  0
 23 22  1  0  0  0  0
 24 23  1  0  0  0  0
M  END
>  <MODEL>
4

>  <REMARK>
  Name = ZINC50515763
                            x       y       z     vdW  Elec       q    Type
                         _______ _______ _______ _____ _____    ______ ____

>  <TORSDO>
F 8

>  <minimizedAffinity>
-7.8588518770259244

$$$$
ZINC50515763
 OpenBabel10211212533D

 24 25  0  0  0  0  0  0  0  0999 V2000
   50.7800   51.7470   19.5330 N   0  0  0  0  0  0  0  0  0  0  0  0
   50.4900   53.0330   19.9790 C   0  0  0  0  0  0  0  0  0  0  0  0
   49.4270   53.7380   19.4240 C   0  0  0  0  0  0  0  0  0  0  0  0
   49.1370   55.0100   19.8630 C   0  0  0  0  0  0  0  0  0  0  0  0
   49.9130   55.5950   20.8690 C   0  0  0  0  0  0  0  0  0  0  0  0
   50.9820   54.8850   21.4260 C   0  0  0  0  0  0  0  0  0  0  0  0
   51.2630   53.6100   20.9850 C   0  0  0  0  0  0  0  0  0  0  0  0
   52.2920   52.9210   21.5260 F   0  0  0  0  0  0  0  0  0  0  0  0
   49.6050   56.9570   21.3410 C   0  0  0  0  0  0  0  0  0  0  0  0
   48.1930   57.7540   20.7920 S   0  0  0  0  0  0  0  0  0  0  0  0
   50.4370   57.5750   22.2030 N   0  0  0  0  0  0  0  0  0  0  0  0
   51.0250   58.2790   21.8890 H   0  0  0  0  0  0  0  0  0  0  0  0
   50.4450   57.3170   23.1370 H   0  0  0  0  0  0  0  0  0  0  0  0
   50.5210   51.3790   18.1380 C   0  0  0  0  0  0  0  0  0  0  0  0
   46.7950   49.3070   17.8780 C   0  0  0  0  0  0  0  0  0  0  0  0
   46.9720   50.4980   17.1980 C   0  0  0  0  0  0  0  0  0  0  0  0
   48.1780   51.1680   17.2830 C   0  0  0  0  0  0  0  0  0  0  0  0
   49.2060   50.6490   18.0470 C   0  0  0  0  0  0  0  0  0  0  0  0
   49.0280   49.4580   18.7270 C   0  0  0  0  0  0  0  0  0  0  0  0
   47.8230   48.7870   18.6410 C   0  0  0  0  0  0  0  0  0  0  0  0
   51.3430   50.7600   20.4580 C   0  0  0  0  0  0  0  0  0  0  0  0
   52.6080   50.1520   19.8470 C   0  0  0  0  0  0  0  0  0  0  0  0
   52.5550   48.7290   19.9600 O   0  0  0  0  0  0  0  0  0  0  0  0
   51.6610   48.3640   19.9080 H   0  0  0  0  0  0  0  0  0  0  0  0
  1  2  1  0  0  0  0
  1 21  1  0  0  0  0
  2  7  2  0  0  0  0
  3  4  2  0  0  0  0
  3  2  1  0  0  0  0
  4  5  1  0  0  0  0
  5  9  1  0  0  0  0
  5  6  2  0  0  0  0
  7  6  1  0  0  0  0
  7  8  1  0  0  0  0
  9 11  1  0  0  0  0
 10  9  2  0  0  0  0
 11 13  1  0  0  0  0
 12 11  1  0  0  0  0
 14  1  1  0  0  0  0
 15 20  2  0  0  0  0
 16 17  2  0  0  0  0
 16 15  1  0  0  0  0
 17 18  1  0  0  0  0
 18 14  1  0  0  0  0
 18 19  2  0  0  0  0
 20 19  1  0  0  0  0
 22 23  1  0  0  0  0
 22 21  1  0  0  0  0
 24 23  1  0  0  0  0
M  END
>  <MODEL>
5

>  <REMARK>
  Name = ZINC50515763
                            x       y       z     vdW  Elec       q    Type
                         _______ _______ _______ _____ _____    ______ ____

>  <TORSDO>
F 8

>  <minimizedAffinity>
-7.8182549755277195

$$$$
ZINC50515763
 OpenBabel10211212533D

 24 25  0  0  0  0  0  0  0  0999 V2000
   50.5240   53.7010   19.8540 N   0  0  0  0  0  0  0  0  0  0  0  0
   50.2900   52.7920   18.8250 C   0  0  0  0  0  0  0  0  0  0  0  0
   49.1130   52.8670   18.0870 C   0  0  0  0  0  0  0  0  0  0  0  0
   48.8790   51.9700   17.0680 C   0  0  0  0  0  0  0  0  0  0  0  0
   49.8260   50.9840   16.7740 C   0  0  0  0  0  0  0  0  0  0  0  0
   51.0080   50.9100   17.5180 C   0  0  0  0  0  0  0  0  0  0  0  0
   51.2390   51.8140   18.5330 C   0  0  0  0  0  0  0  0  0  0  0  0
   52.3840   51.7470   19.2480 F   0  0  0  0  0  0  0  0  0  0  0  0
   49.5770   50.0230   15.6860 C   0  0  0  0  0  0  0  0  0  0  0  0
   47.9820   49.4930   15.3590 S   0  0  0  0  0  0  0  0  0  0  0  0
   50.6060   49.5610   14.9470 N   0  0  0  0  0  0  0  0  0  0  0  0
   50.7920   49.9500   14.0780 H   0  0  0  0  0  0  0  0  0  0  0  0
   51.1600   48.8410   15.2840 H   0  0  0  0  0  0  0  0  0  0  0  0
   50.9510   55.0670   19.5430 C   0  0  0  0  0  0  0  0  0  0  0  0
   48.1510   57.8440   21.1850 C   0  0  0  0  0  0  0  0  0  0  0  0
   49.4300   57.7630   21.7050 C   0  0  0  0  0  0  0  0  0  0  0  0
   50.3360   56.8640   21.1740 C   0  0  0  0  0  0  0  0  0  0  0  0
   49.9630   56.0460   20.1230 C   0  0  0  0  0  0  0  0  0  0  0  0
   48.6850   56.1280   19.6030 C   0  0  0  0  0  0  0  0  0  0  0  0
   47.7790   57.0280   20.1340 C   0  0  0  0  0  0  0  0  0  0  0  0
   50.3430   53.2890   21.2490 C   0  0  0  0  0  0  0  0  0  0  0  0
   51.6800   53.3820   21.9860 C   0  0  0  0  0  0  0  0  0  0  0  0
   52.1340   52.0680   22.3160 O   0  0  0  0  0  0  0  0  0  0  0  0
   53.0180   52.0440   22.7060 H   0  0  0  0  0  0  0  0  0  0  0  0
  1 21  1  0  0  0  0
  2  1  1  0  0  0  0
  3  2  2  0  0  0  0
  4  3  1  0  0  0  0
  5  4  2  0  0  0  0
  5  6  1  0  0  0  0
  6  7  2  0  0  0  0
  7  2  1  0  0  0  0
  7  8  1  0  0  0  0
  9  5  1  0  0  0  0
 10  9  2  0  0  0  0
 11 13  1  0  0  0  0
 11  9  1  0  0  0  0
 12 11  1  0  0  0  0
 14  1  1  0  0  0  0
 14 18  1  0  0  0  0
 15 16  1  0  0  0  0
 17 16  2  0  0  0  0
 18 17  1  0  0  0  0
 19 18  2  0  0  0  0
 19 20  1  0  0  0  0
 20 15  2  0  0  0  0
 21 22  1  0  0  0  0
 22 23  1  0  0  0  0
 23 24  1  0  0  0  0
M  END
>  <MODEL>
6

>  <REMARK>
  Name = ZINC50515763
                            x       y       z     vdW  Elec       q    Type
                         _______ _______ _______ _____ _____    ______ ____

>  <TORSDO>
F 8

>  <minimizedAffinity>
-7.8026376140532312

$$$$
ZINC50515763
 OpenBabel10211212533D

 24 25  0  0  0  0  0  0  0  0999 V2000
   49.1220   49.8650   15.8990 N   0  0  0  0  0  0  0  0  0  0  0  0
   49.0520   51.0760   16.5840 C   0  0  0  0  0  0  0  0  0  0  0  0
   47.9900   51.9440   16.3520 C   0  0  0  0  0  0  0  0  0  0  0  0
   47.9180   53.1420   17.0270 C   0  0  0  0  0  0  0  0  0  0  0  0
   48.9120   53.4860   17.9490 C   0  0  0  0  0  0  0  0  0  0  0  0
   49.9790   52.6110   18.1800 C   0  0  0  0  0  0  0  0  0  0  0  0
   50.0430   51.4120   17.5050 C   0  0  0  0  0  0  0  0  0  0  0  0
   51.0700   50.5640   17.7320 F   0  0  0  0  0  0  0  0  0  0  0  0
   48.8370   54.7670   18.6720 C   0  0  0  0  0  0  0  0  0  0  0  0
   48.5790   56.2230   17.8100 S   0  0  0  0  0  0  0  0  0  0  0  0
   48.9710   54.7920   20.0130 N   0  0  0  0  0  0  0  0  0  0  0  0
   49.8520   54.8680   20.4110 H   0  0  0  0  0  0  0  0  0  0  0  0
   48.1860   54.7360   20.5800 H   0  0  0  0  0  0  0  0  0  0  0  0
   48.8920   48.6050   16.6120 C   0  0  0  0  0  0  0  0  0  0  0  0
   44.7480   48.2590   17.5890 C   0  0  0  0  0  0  0  0  0  0  0  0
   45.1350   48.4380   16.2740 C   0  0  0  0  0  0  0  0  0  0  0  0
   46.4760   48.5510   15.9580 C   0  0  0  0  0  0  0  0  0  0  0  0
   47.4290   48.4840   16.9560 C   0  0  0  0  0  0  0  0  0  0  0  0
   47.0420   48.3050   18.2720 C   0  0  0  0  0  0  0  0  0  0  0  0
   45.7010   48.1910   18.5870 C   0  0  0  0  0  0  0  0  0  0  0  0
   49.4270   49.8510   14.4660 C   0  0  0  0  0  0  0  0  0  0  0  0
   50.8460   49.3190   14.2520 C   0  0  0  0  0  0  0  0  0  0  0  0
   51.7800   50.3940   14.3670 O   0  0  0  0  0  0  0  0  0  0  0  0
   52.6480   50.2030   13.9860 H   0  0  0  0  0  0  0  0  0  0  0  0
  1  2  1  0  0  0  0
  1 14  1  0  0  0  0
  2  7  1  0  0  0  0
  3  2  2  0  0  0  0
  3  4  1  0  0  0  0
  4  5  2  0  0  0  0
  5  6  1  0  0  0  0
  5  9  1  0  0  0  0
  7  8  1  0  0  0  0
  7  6  2  0  0  0  0
  9 11  1  0  0  0  0
 10  9  2  0  0  0  0
 11 12  1  0  0  0  0
 11 13  1  0  0  0  0
 14 18  1  0  0  0  0
 15 20  2  0  0  0  0
 16 15  1  0  0  0  0
 17 16  2  0  0  0  0
 17 18  1  0  0  0  0
 18 19  2  0  0  0  0
 19 20  1  0  0  0  0
 21  1  1  0  0  0  0
 22 23  1  0  0  0  0
 22 21  1  0  0  0  0
 24 23  1  0  0  0  0
M  END
>  <MODEL>
7

>  <REMARK>
  Name = ZINC50515763
                            x       y       z     vdW  Elec       q    Type
                         _______ _______ _______ _____ _____    ______ ____

>  <TORSDO>
F 8

>  <minimizedAffinity>
-7.7499232299705652

$$$$
ZINC50515763
 OpenBabel10211212533D

 24 25  0  0  0  0  0  0  0  0999 V2000
   51.2420   51.5960   20.0860 N   0  0  0  0  0  0  0  0  0  0  0  0
   50.2570   51.0510   19.2660 C   0  0  0  0  0  0  0  0  0  0  0  0
   49.6570   51.8360   18.2870 C   0  0  0  0  0  0  0  0  0  0  0  0
   48.6820   51.3000   17.4750 C   0  0  0  0  0  0  0  0  0  0  0  0
   48.2970   49.9660   17.6340 C   0  0  0  0  0  0  0  0  0  0  0  0
   48.9020   49.1790   18.6190 C   0  0  0  0  0  0  0  0  0  0  0  0
   49.8800   49.7190   19.4250 C   0  0  0  0  0  0  0  0  0  0  0  0
   50.4690   48.9580   20.3740 F   0  0  0  0  0  0  0  0  0  0  0  0
   47.2540   49.3910   16.7660 C   0  0  0  0  0  0  0  0  0  0  0  0
   47.6830   48.6790   15.2690 S   0  0  0  0  0  0  0  0  0  0  0  0
   45.9630   49.4250   17.1510 N   0  0  0  0  0  0  0  0  0  0  0  0
   45.6710   50.0730   17.8100 H   0  0  0  0  0  0  0  0  0  0  0  0
   45.3260   48.8040   16.7660 H   0  0  0  0  0  0  0  0  0  0  0  0
   50.9030   52.0500   21.4380 C   0  0  0  0  0  0  0  0  0  0  0  0
   50.6620   56.3150   21.4910 C   0  0  0  0  0  0  0  0  0  0  0  0
   49.8280   55.5850   20.6640 C   0  0  0  0  0  0  0  0  0  0  0  0
   49.9060   54.2050   20.6460 C   0  0  0  0  0  0  0  0  0  0  0  0
   50.8190   53.5550   21.4550 C   0  0  0  0  0  0  0  0  0  0  0  0
   51.6530   54.2840   22.2830 C   0  0  0  0  0  0  0  0  0  0  0  0
   51.5740   55.6640   22.3010 C   0  0  0  0  0  0  0  0  0  0  0  0
   52.6180   51.7160   19.5970 C   0  0  0  0  0  0  0  0  0  0  0  0
   52.7450   52.9720   18.7310 C   0  0  0  0  0  0  0  0  0  0  0  0
   53.2610   52.6150   17.4480 O   0  0  0  0  0  0  0  0  0  0  0  0
   53.0220   53.2330   16.7430 H   0  0  0  0  0  0  0  0  0  0  0  0
  1 14  1  0  0  0  0
  2  7  1  0  0  0  0
  2  1  1  0  0  0  0
  3  2  2  0  0  0  0
  4  5  2  0  0  0  0
  4  3  1  0  0  0  0
  5  6  1  0  0  0  0
  6  7  2  0  0  0  0
  7  8  1  0  0  0  0
  9 11  1  0  0  0  0
  9  5  1  0  0  0  0
 10  9  2  0  0  0  0
 11 12  1  0  0  0  0
 13 11  1  0  0  0  0
 14 18  1  0  0  0  0
 15 20  2  0  0  0  0
 16 15  1  0  0  0  0
 17 16  2  0  0  0  0
 17 18  1  0  0  0  0
 18 19  2  0  0  0  0
 19 20  1  0  0  0  0
 21  1  1  0  0  0  0
 22 21  1  0  0  0  0
 23 22  1  0  0  0  0
 24 23  1  0  0  0  0
M  END
>  <MODEL>
8

>  <REMARK>
  Name = ZINC50515763
                            x       y       z     vdW  Elec       q    Type
                         _______ _______ _______ _____ _____    ______ ____

>  <TORSDO>
F 8

>  <minimizedAffinity>
-7.7206074882309927

$$$$
ZINC50515763
 OpenBabel10211212533D

 24 25  0  0  0  0  0  0  0  0999 V2000
   51.6790   51.8360   19.5400 N   0  0  0  0  0  0  0  0  0  0  0  0
   51.6800   53.1240   20.0690 C   0  0  0  0  0  0  0  0  0  0  0  0
   52.3630   54.1440   19.4120 C   0  0  0  0  0  0  0  0  0  0  0  0
   52.3660   55.4190   19.9320 C   0  0  0  0  0  0  0  0  0  0  0  0
   51.6810   55.6900   21.1210 C   0  0  0  0  0  0  0  0  0  0  0  0
   50.9960   54.6640   21.7790 C   0  0  0  0  0  0  0  0  0  0  0  0
   50.9920   53.3910   21.2510 C   0  0  0  0  0  0  0  0  0  0  0  0
   50.3250   52.4000   21.8830 F   0  0  0  0  0  0  0  0  0  0  0  0
   51.6830   57.0530   21.6790 C   0  0  0  0  0  0  0  0  0  0  0  0
   53.0520   58.0610   21.4730 S   0  0  0  0  0  0  0  0  0  0  0  0
   50.6070   57.5070   22.3520 N   0  0  0  0  0  0  0  0  0  0  0  0
   49.9070   57.9850   21.8810 H   0  0  0  0  0  0  0  0  0  0  0  0
   50.5330   57.3550   23.3070 H   0  0  0  0  0  0  0  0  0  0  0  0
   51.4650   51.6330   18.1050 C   0  0  0  0  0  0  0  0  0  0  0  0
   47.2810   51.2720   17.3250 C   0  0  0  0  0  0  0  0  0  0  0  0
   47.8900   52.5120   17.2690 C   0  0  0  0  0  0  0  0  0  0  0  0
   49.2440   52.6280   17.5220 C   0  0  0  0  0  0  0  0  0  0  0  0
   49.9890   51.5060   17.8300 C   0  0  0  0  0  0  0  0  0  0  0  0
   49.3800   50.2650   17.8860 C   0  0  0  0  0  0  0  0  0  0  0  0
   48.0260   50.1490   17.6320 C   0  0  0  0  0  0  0  0  0  0  0  0
   51.8920   50.6840   20.4200 C   0  0  0  0  0  0  0  0  0  0  0  0
   52.8760   49.7140   19.7610 C   0  0  0  0  0  0  0  0  0  0  0  0
   52.5420   48.3740   20.1270 O   0  0  0  0  0  0  0  0  0  0  0  0
   51.7190   48.2980   20.6290 H   0  0  0  0  0  0  0  0  0  0  0  0
  1  2  1  0  0  0  0
  1 21  1  0  0  0  0
  2  7  2  0  0  0  0
  3  4  2  0  0  0  0
  3  2  1  0  0  0  0
  4  5  1  0  0  0  0
  5  9  1  0  0  0  0
  5  6  2  0  0  0  0
  7  6  1  0  0  0  0
  7  8  1  0  0  0  0
  9 11  1  0  0  0  0
 10  9  2  0  0  0  0
 11 13  1  0  0  0  0
 12 11  1  0  0  0  0
 14  1  1  0  0  0  0
 15 20  1  0  0  0  0
 16 15  2  0  0  0  0
 16 17  1  0  0  0  0
 17 18  2  0  0  0  0
 18 19  1  0  0  0  0
 18 14  1  0  0  0  0
 20 19  2  0  0  0  0
 22 23  1  0  0  0  0
 22 21  1  0  0  0  0
 23 24  1  0  0  0  0
M  END
>  <MODEL>
9

>  <REMARK>
  Name = ZINC50515763
                            x       y       z     vdW  Elec       q    Type
                         _______ _______ _______ _____ _____    ______ ____

>  <TORSDO>
F 8

>  <minimizedAffinity>
-7.6962640417026957

$$$$
ZINC42171309
 OpenBabel10211212543D

 22 23  0  0  1  0  0  0  0  0999 V2000
   51.9180   55.6740   21.3640 C   0  0  0  0  0  0  0  0  0  0  0  0
   51.4260   54.4310   21.1910 N   0  0  0  0  0  0  0  0  0  0  0  0
   51.0180   54.1830   20.3470 H   0  0  0  0  0  0  0  0  0  0  0  0
   52.4280   55.9820   22.4190 O   0  0  0  0  0  0  0  0  0  0  0  0
   51.8320   56.6800   20.2450 C   0  0  0  0  0  0  0  0  0  0  0  0
   48.2320   57.5830   20.8900 C   0  0  0  0  0  0  0  0  0  0  0  0
   49.3110   56.8470   20.0630 C   0  0  0  0  0  0  0  0  0  0  0  0
   50.6160   57.5820   20.4630 C   0  0  1  0  0  0  0  0  0  0  0  0
   50.4180   57.8600   21.9090 N   0  0  0  0  0  0  0  0  0  0  0  0
   51.0110   58.6230   22.2010 H   0  0  0  0  0  0  0  0  0  0  0  0
   50.6180   57.0350   22.4540 H   0  0  0  0  0  0  0  0  0  0  0  0
   48.9950   58.2360   22.0570 C   0  0  0  0  0  0  0  0  0  0  0  0
   51.5090   53.4520   22.2780 C   0  0  0  0  0  0  0  0  0  0  0  0
   51.0310   52.0890   21.7750 C   0  0  0  0  0  0  0  0  0  0  0  0
   52.2230   51.3000   21.2300 C   0  0  0  0  0  0  0  0  0  0  0  0
   52.4770   51.6960   19.8800 O   0  0  0  0  0  0  0  0  0  0  0  0
   51.8750   50.8450   18.9020 C   0  0  0  0  0  0  0  0  0  0  0  0
   50.9860   51.6800   17.9780 C   0  0  1  0  0  0  0  0  0  0  0  0
   49.5140   51.2070   18.0760 C   0  0  0  0  0  0  0  0  0  0  0  0
   48.7600   52.4940   17.6420 C   0  0  0  0  0  0  0  0  0  0  0  0
   49.6650   53.6100   18.2090 C   0  0  0  0  0  0  0  0  0  0  0  0
   50.9700   53.0510   18.4060 O   0  0  0  0  0  0  0  0  0  0  0  0
  1  4  2  0  0  0  0
  2  1  1  0  0  0  0
  2 13  1  0  0  0  0
  3  2  1  0  0  0  0
  5  1  1  0  0  0  0
  6 12  1  0  0  0  0
  7  8  1  0  0  0  0
  7  6  1  0  0  0  0
  8  5  1  1  0  0  0
  8  9  1  0  0  0  0
  9 12  1  0  0  0  0
  9 10  1  0  0  0  0
  9 11  1  0  0  0  0
 14 13  1  0  0  0  0
 15 14  1  0  0  0  0
 16 15  1  0  0  0  0
 17 16  1  0  0  0  0
 18 19  1  0  0  0  0
 18 22  1  0  0  0  0
 18 17  1  1  0  0  0
 20 19  1  0  0  0  0
 20 21  1  0  0  0  0
 21 22  1  0  0  0  0
M  END
>  <MODEL>
1

>  <REMARK>
  Name = ZINC42171309
                            x       y       z     vdW  Elec       q    Type
                         _______ _______ _______ _____ _____    ______ ____

>  <TORSDO>
F 8

>  <minimizedAffinity>
-6.2942429290984485

$$$$
ZINC42171309
 OpenBabel10211212543D

 22 23  0  0  1  0  0  0  0  0999 V2000
   50.5620   53.9030   19.5040 C   0  0  0  0  0  0  0  0  0  0  0  0
   50.9450   52.7910   20.1620 N   0  0  0  0  0  0  0  0  0  0  0  0
   50.3340   52.3560   20.7770 H   0  0  0  0  0  0  0  0  0  0  0  0
   51.3260   54.4460   18.7350 O   0  0  0  0  0  0  0  0  0  0  0  0
   49.1830   54.4710   19.7240 C   0  0  0  0  0  0  0  0  0  0  0  0
   48.1860   57.8750   20.9910 C   0  0  0  0  0  0  0  0  0  0  0  0
   47.8800   56.5940   20.1810 C   0  0  0  0  0  0  0  0  0  0  0  0
   49.2860   55.9780   19.9640 C   0  0  1  0  0  0  0  0  0  0  0  0
   49.9820   56.2610   21.2450 N   0  0  0  0  0  0  0  0  0  0  0  0
   50.9820   56.2340   21.1110 H   0  0  0  0  0  0  0  0  0  0  0  0
   49.7070   55.5910   21.9470 H   0  0  0  0  0  0  0  0  0  0  0  0
   49.5580   57.6210   21.6430 C   0  0  0  0  0  0  0  0  0  0  0  0
   52.2860   52.2380   19.9500 C   0  0  0  0  0  0  0  0  0  0  0  0
   52.4210   50.9210   20.7140 C   0  0  0  0  0  0  0  0  0  0  0  0
   51.7710   49.7940   19.9070 C   0  0  0  0  0  0  0  0  0  0  0  0
   50.3510   49.9580   19.9190 O   0  0  0  0  0  0  0  0  0  0  0  0
   49.6470   48.9780   19.1530 C   0  0  0  0  0  0  0  0  0  0  0  0
   49.0590   49.6350   17.9030 C   0  0  1  0  0  0  0  0  0  0  0  0
   47.5120   49.5570   17.9320 C   0  0  0  0  0  0  0  0  0  0  0  0
   47.1380   50.7600   17.0240 C   0  0  0  0  0  0  0  0  0  0  0  0
   48.2590   51.7730   17.3450 C   0  0  0  0  0  0  0  0  0  0  0  0
   49.3650   51.0380   17.8850 O   0  0  0  0  0  0  0  0  0  0  0  0
  1  5  1  0  0  0  0
  1  2  1  0  0  0  0
  2  3  1  0  0  0  0
  4  1  2  0  0  0  0
  6 12  1  0  0  0  0
  7  6  1  0  0  0  0
  8  5  1  1  0  0  0
  8  7  1  0  0  0  0
  8  9  1  0  0  0  0
  9 12  1  0  0  0  0
  9 11  1  0  0  0  0
 10  9  1  0  0  0  0
 13  2  1  0  0  0  0
 13 14  1  0  0  0  0
 15 16  1  0  0  0  0
 15 14  1  0  0  0  0
 17 16  1  0  0  0  0
 18 19  1  0  0  0  0
 18 17  1  1  0  0  0
 20 21  1  0  0  0  0
 20 19  1  0  0  0  0
 21 22  1  0  0  0  0
 22 18  1  0  0  0  0
M  END
>  <MODEL>
2

>  <REMARK>
  Name = ZINC42171309
                            x       y       z     vdW  Elec       q    Type
                         _______ _______ _______ _____ _____    ______ ____

>  <TORSDO>
F 8

>  <minimizedAffinity>
-5.8315644785052934

$$$$
ZINC42171309
 OpenBabel10211212543D

 22 23  0  0  1  0  0  0  0  0999 V2000
   50.5040   51.1470   19.1220 C   0  0  0  0  0  0  0  0  0  0  0  0
   50.9310   52.3330   19.5990 N   0  0  0  0  0  0  0  0  0  0  0  0
   50.4830   53.1520   19.3360 H   0  0  0  0  0  0  0  0  0  0  0  0
   51.0640   50.1240   19.4510 O   0  0  0  0  0  0  0  0  0  0  0  0
   49.3290   51.0940   18.1790 C   0  0  0  0  0  0  0  0  0  0  0  0
   47.0340   48.2590   17.2340 C   0  0  0  0  0  0  0  0  0  0  0  0
   47.2660   49.7440   17.6010 C   0  0  0  0  0  0  0  0  0  0  0  0
   48.6610   49.7210   18.2740 C   0  0  1  0  0  0  0  0  0  0  0  0
   49.4070   48.7150   17.4760 N   0  0  0  0  0  0  0  0  0  0  0  0
   50.1830   48.3530   18.0090 H   0  0  0  0  0  0  0  0  0  0  0  0
   49.7380   49.1280   16.6160 H   0  0  0  0  0  0  0  0  0  0  0  0
   48.4410   47.6340   17.1840 C   0  0  0  0  0  0  0  0  0  0  0  0
   52.0730   52.3860   20.5150 C   0  0  0  0  0  0  0  0  0  0  0  0
   51.5740   52.6400   21.9380 C   0  0  0  0  0  0  0  0  0  0  0  0
   51.5010   54.1470   22.1910 C   0  0  0  0  0  0  0  0  0  0  0  0
   52.2670   54.8340   21.1990 O   0  0  0  0  0  0  0  0  0  0  0  0
   51.7600   56.1290   20.8660 C   0  0  0  0  0  0  0  0  0  0  0  0
   50.2370   56.1290   21.0010 C   0  0  1  0  0  0  0  0  0  0  0  0
   49.7470   57.4870   21.5640 C   0  0  0  0  0  0  0  0  0  0  0  0
   48.2920   57.5240   21.0240 C   0  0  0  0  0  0  0  0  0  0  0  0
   48.4300   56.8110   19.6610 C   0  0  0  0  0  0  0  0  0  0  0  0
   49.6210   56.0140   19.7080 O   0  0  0  0  0  0  0  0  0  0  0  0
  1  4  2  0  0  0  0
  1  2  1  0  0  0  0
  2 13  1  0  0  0  0
  3  2  1  0  0  0  0
  5  1  1  0  0  0  0
  6  7  1  0  0  0  0
  7  8  1  0  0  0  0
  8  5  1  6  0  0  0
  9 10  1  0  0  0  0
  9  8  1  0  0  0  0
 11  9  1  0  0  0  0
 12  6  1  0  0  0  0
 12  9  1  0  0  0  0
 13 14  1  0  0  0  0
 14 15  1  0  0  0  0
 16 15  1  0  0  0  0
 17 16  1  0  0  0  0
 18 17  1  6  0  0  0
 18 19  1  0  0  0  0
 20 19  1  0  0  0  0
 21 22  1  0  0  0  0
 21 20  1  0  0  0  0
 22 18  1  0  0  0  0
M  END
>  <MODEL>
3

>  <REMARK>
  Name = ZINC42171309
                            x       y       z     vdW  Elec       q    Type
                         _______ _______ _______ _____ _____    ______ ____

>  <TORSDO>
F 8

>  <minimizedAffinity>
-5.8286044089046696

$$$$
ZINC42171309
 OpenBabel10211212543D

 22 23  0  0  1  0  0  0  0  0999 V2000
   51.0250   50.2750   19.6200 C   0  0  0  0  0  0  0  0  0  0  0  0
   50.9430   50.7430   20.8810 N   0  0  0  0  0  0  0  0  0  0  0  0
   50.1510   50.5680   21.4140 H   0  0  0  0  0  0  0  0  0  0  0  0
   52.0150   50.4940   18.9550 O   0  0  0  0  0  0  0  0  0  0  0  0
   49.8860   49.4780   19.0370 C   0  0  0  0  0  0  0  0  0  0  0  0
   47.3320   51.3110   16.9620 C   0  0  0  0  0  0  0  0  0  0  0  0
   47.7700   50.0740   17.7800 C   0  0  0  0  0  0  0  0  0  0  0  0
   49.3120   50.2190   17.8290 C   0  0  1  0  0  0  0  0  0  0  0  0
   49.5100   51.6850   17.9670 N   0  0  0  0  0  0  0  0  0  0  0  0
   50.4370   51.9410   17.6590 H   0  0  0  0  0  0  0  0  0  0  0  0
   49.3710   51.9670   18.9250 H   0  0  0  0  0  0  0  0  0  0  0  0
   48.4930   52.3140   17.0970 C   0  0  0  0  0  0  0  0  0  0  0  0
   52.0500   51.5180   21.4490 C   0  0  0  0  0  0  0  0  0  0  0  0
   51.5800   52.9460   21.7320 C   0  0  0  0  0  0  0  0  0  0  0  0
   51.6010   53.7560   20.4340 C   0  0  0  0  0  0  0  0  0  0  0  0
   50.2730   53.8590   19.9150 O   0  0  0  0  0  0  0  0  0  0  0  0
   49.9970   55.1020   19.2660 C   0  0  0  0  0  0  0  0  0  0  0  0
   48.8940   55.8410   20.0250 C   0  0  1  0  0  0  0  0  0  0  0  0
   49.5120   56.7910   21.0800 C   0  0  0  0  0  0  0  0  0  0  0  0
   48.3760   57.8390   21.2360 C   0  0  0  0  0  0  0  0  0  0  0  0
   47.7950   57.9070   19.8060 C   0  0  0  0  0  0  0  0  0  0  0  0
   48.1600   56.6950   19.1330 O   0  0  0  0  0  0  0  0  0  0  0  0
  1  2  1  0  0  0  0
  2  3  1  0  0  0  0
  2 13  1  0  0  0  0
  4  1  2  0  0  0  0
  5  1  1  0  0  0  0
  6 12  1  0  0  0  0
  6  7  1  0  0  0  0
  7  8  1  0  0  0  0
  8  9  1  0  0  0  0
  8  5  1  1  0  0  0
  9 11  1  0  0  0  0
 10  9  1  0  0  0  0
 12  9  1  0  0  0  0
 13 14  1  0  0  0  0
 15 14  1  0  0  0  0
 16 15  1  0  0  0  0
 17 16  1  0  0  0  0
 18 17  1  6  0  0  0
 18 19  1  0  0  0  0
 19 20  1  0  0  0  0
 21 20  1  0  0  0  0
 22 21  1  0  0  0  0
 22 18  1  0  0  0  0
M  END
>  <MODEL>
4

>  <REMARK>
  Name = ZINC42171309
                            x       y       z     vdW  Elec       q    Type
                         _______ _______ _______ _____ _____    ______ ____

>  <TORSDO>
F 8

>  <minimizedAffinity>
-5.7969928572991565

$$$$
ZINC42171309
 OpenBabel10211212543D

 22 23  0  0  1  0  0  0  0  0999 V2000
   49.4180   51.6980   17.1600 C   0  0  0  0  0  0  0  0  0  0  0  0
   49.9000   52.3170   18.2570 N   0  0  0  0  0  0  0  0  0  0  0  0
   50.5440   51.8660   18.8250 H   0  0  0  0  0  0  0  0  0  0  0  0
   48.6130   52.2620   16.4510 O   0  0  0  0  0  0  0  0  0  0  0  0
   49.8810   50.3060   16.8160 C   0  0  0  0  0  0  0  0  0  0  0  0
   46.7040   48.8510   18.2220 C   0  0  0  0  0  0  0  0  0  0  0  0
   48.1590   49.3430   18.4030 C   0  0  0  0  0  0  0  0  0  0  0  0
   48.7110   49.3310   16.9550 C   0  0  1  0  0  0  0  0  0  0  0  0
   47.5500   49.7810   16.1450 N   0  0  0  0  0  0  0  0  0  0  0  0
   47.6590   49.4840   15.1870 H   0  0  0  0  0  0  0  0  0  0  0  0
   47.4620   50.7850   16.1910 H   0  0  0  0  0  0  0  0  0  0  0  0
   46.3630   49.1370   16.7470 C   0  0  0  0  0  0  0  0  0  0  0  0
   49.4490   53.6700   18.5930 C   0  0  0  0  0  0  0  0  0  0  0  0
   49.8020   53.9790   20.0480 C   0  0  0  0  0  0  0  0  0  0  0  0
   51.2410   54.4950   20.1250 C   0  0  0  0  0  0  0  0  0  0  0  0
   52.1220   53.4080   20.4150 O   0  0  0  0  0  0  0  0  0  0  0  0
   51.7460   52.6460   21.5650 C   0  0  0  0  0  0  0  0  0  0  0  0
   52.1050   51.1760   21.3420 C   0  0  1  0  0  0  0  0  0  0  0  0
   50.8420   50.3650   20.9610 C   0  0  0  0  0  0  0  0  0  0  0  0
   51.4750   49.1780   20.1850 C   0  0  0  0  0  0  0  0  0  0  0  0
   52.6820   49.8470   19.4910 C   0  0  0  0  0  0  0  0  0  0  0  0
   52.9910   51.0430   20.2190 O   0  0  0  0  0  0  0  0  0  0  0  0
  1  2  1  0  0  0  0
  2 13  1  0  0  0  0
  2  3  1  0  0  0  0
  4  1  2  0  0  0  0
  5  1  1  0  0  0  0
  6  7  1  0  0  0  0
  8  5  1  1  0  0  0
  8  7  1  0  0  0  0
  9 11  1  0  0  0  0
  9 12  1  0  0  0  0
  9  8  1  0  0  0  0
 10  9  1  0  0  0  0
 12  6  1  0  0  0  0
 13 14  1  0  0  0  0
 14 15  1  0  0  0  0
 15 16  1  0  0  0  0
 16 17  1  0  0  0  0
 18 17  1  6  0  0  0
 19 18  1  0  0  0  0
 20 19  1  0  0  0  0
 21 20  1  0  0  0  0
 21 22  1  0  0  0  0
 22 18  1  0  0  0  0
M  END
>  <MODEL>
5

>  <REMARK>
  Name = ZINC42171309
                            x       y       z     vdW  Elec       q    Type
                         _______ _______ _______ _____ _____    ______ ____

>  <TORSDO>
F 8

>  <minimizedAffinity>
-5.7911150768375164

$$$$
ZINC42171309
 OpenBabel10211212543D

 22 23  0  0  1  0  0  0  0  0999 V2000
   51.5380   54.2860   21.8190 C   0  0  0  0  0  0  0  0  0  0  0  0
   51.4010   53.1780   21.0640 N   0  0  0  0  0  0  0  0  0  0  0  0
   51.1440   53.2540   20.1320 H   0  0  0  0  0  0  0  0  0  0  0  0
   51.8600   54.1900   22.9830 O   0  0  0  0  0  0  0  0  0  0  0  0
   51.2920   55.6440   21.2130 C   0  0  0  0  0  0  0  0  0  0  0  0
   53.9150   58.3170   20.8050 C   0  0  0  0  0  0  0  0  0  0  0  0
   53.2910   56.9640   20.3920 C   0  0  0  0  0  0  0  0  0  0  0  0
   52.4200   56.5940   21.6190 C   0  0  1  0  0  0  0  0  0  0  0  0
   51.8740   57.9060   22.0540 N   0  0  0  0  0  0  0  0  0  0  0  0
   51.5910   57.8600   23.0220 H   0  0  0  0  0  0  0  0  0  0  0  0
   51.0920   58.1680   21.4740 H   0  0  0  0  0  0  0  0  0  0  0  0
   52.9780   58.8770   21.8910 C   0  0  0  0  0  0  0  0  0  0  0  0
   51.6390   51.8570   21.6520 C   0  0  0  0  0  0  0  0  0  0  0  0
   52.2510   50.9330   20.5980 C   0  0  0  0  0  0  0  0  0  0  0  0
   51.5970   51.2030   19.2420 C   0  0  0  0  0  0  0  0  0  0  0  0
   50.2090   50.8680   19.3080 O   0  0  0  0  0  0  0  0  0  0  0  0
   49.9420   49.4680   19.1880 C   0  0  0  0  0  0  0  0  0  0  0  0
   48.8760   49.2420   18.1160 C   0  0  1  0  0  0  0  0  0  0  0  0
   47.5480   48.7810   18.7660 C   0  0  0  0  0  0  0  0  0  0  0  0
   46.5200   49.2330   17.6940 C   0  0  0  0  0  0  0  0  0  0  0  0
   47.1610   50.5290   17.1510 C   0  0  0  0  0  0  0  0  0  0  0  0
   48.5610   50.4790   17.4550 O   0  0  0  0  0  0  0  0  0  0  0  0
  1  4  2  0  0  0  0
  2 13  1  0  0  0  0
  2  1  1  0  0  0  0
  3  2  1  0  0  0  0
  5  1  1  0  0  0  0
  6 12  1  0  0  0  0
  7  6  1  0  0  0  0
  7  8  1  0  0  0  0
  8  5  1  6  0  0  0
  8  9  1  0  0  0  0
  9 10  1  0  0  0  0
 11  9  1  0  0  0  0
 12  9  1  0  0  0  0
 14 13  1  0  0  0  0
 15 16  1  0  0  0  0
 15 14  1  0  0  0  0
 17 16  1  0  0  0  0
 18 19  1  0  0  0  0
 18 17  1  1  0  0  0
 20 19  1  0  0  0  0
 21 22  1  0  0  0  0
 21 20  1  0  0  0  0
 22 18  1  0  0  0  0
M  END
>  <MODEL>
6

>  <REMARK>
  Name = ZINC42171309
                            x       y       z     vdW  Elec       q    Type
                         _______ _______ _______ _____ _____    ______ ____

>  <TORSDO>
F 8

>  <minimizedAffinity>
-5.7401289699912379

$$$$
ZINC42171309
 OpenBabel10211212543D

 22 23  0  0  1  0  0  0  0  0999 V2000
   50.6610   50.8550   17.8830 C   0  0  0  0  0  0  0  0  0  0  0  0
   50.0620   51.6890   17.0100 N   0  0  0  0  0  0  0  0  0  0  0  0
   50.5360   52.4700   16.6820 H   0  0  0  0  0  0  0  0  0  0  0  0
   50.0690   49.8800   18.2930 O   0  0  0  0  0  0  0  0  0  0  0  0
   52.0660   51.1350   18.3500 C   0  0  0  0  0  0  0  0  0  0  0  0
   51.8390   53.7140   21.0860 C   0  0  0  0  0  0  0  0  0  0  0  0
   52.5050   53.1600   19.8050 C   0  0  0  0  0  0  0  0  0  0  0  0
   52.0290   51.6860   19.7760 C   0  0  1  0  0  0  0  0  0  0  0  0
   50.6320   51.7710   20.2720 N   0  0  0  0  0  0  0  0  0  0  0  0
   50.3350   50.8760   20.6310 H   0  0  0  0  0  0  0  0  0  0  0  0
   50.0160   52.0710   19.5310 H   0  0  0  0  0  0  0  0  0  0  0  0
   50.6490   52.7750   21.3580 C   0  0  0  0  0  0  0  0  0  0  0  0
   48.6960   51.4180   16.5570 C   0  0  0  0  0  0  0  0  0  0  0  0
   47.7340   52.4060   17.2170 C   0  0  0  0  0  0  0  0  0  0  0  0
   48.3930   53.7850   17.2950 C   0  0  0  0  0  0  0  0  0  0  0  0
   48.9130   53.9910   18.6100 O   0  0  0  0  0  0  0  0  0  0  0  0
   49.4470   55.2990   18.8260 C   0  0  0  0  0  0  0  0  0  0  0  0
   48.8500   55.8890   20.1050 C   0  0  1  0  0  0  0  0  0  0  0  0
   49.8620   56.8500   20.7770 C   0  0  0  0  0  0  0  0  0  0  0  0
   48.9060   57.7700   21.5840 C   0  0  0  0  0  0  0  0  0  0  0  0
   47.6670   57.8420   20.6640 C   0  0  0  0  0  0  0  0  0  0  0  0
   47.7080   56.7030   19.7930 O   0  0  0  0  0  0  0  0  0  0  0  0
  1  4  2  0  0  0  0
  1  5  1  0  0  0  0
  2  1  1  0  0  0  0
  3  2  1  0  0  0  0
  6 12  1  0  0  0  0
  7  6  1  0  0  0  0
  8  5  1  6  0  0  0
  8  7  1  0  0  0  0
  8  9  1  0  0  0  0
  9 10  1  0  0  0  0
  9 12  1  0  0  0  0
 11  9  1  0  0  0  0
 13  2  1  0  0  0  0
 13 14  1  0  0  0  0
 14 15  1  0  0  0  0
 15 16  1  0  0  0  0
 16 17  1  0  0  0  0
 18 17  1  6  0  0  0
 18 19  1  0  0  0  0
 19 20  1  0  0  0  0
 21 20  1  0  0  0  0
 22 18  1  0  0  0  0
 22 21  1  0  0  0  0
M  END
>  <MODEL>
7

>  <REMARK>
  Name = ZINC42171309
                            x       y       z     vdW  Elec       q    Type
                         _______ _______ _______ _____ _____    ______ ____

>  <TORSDO>
F 8

>  <minimizedAffinity>
-5.6468656404210851

$$$$
ZINC42171309
 OpenBabel10211212543D

 22 23  0  0  1  0  0  0  0  0999 V2000
   51.8690   54.4890   21.0210 C   0  0  0  0  0  0  0  0  0  0  0  0
   51.7480   53.1790   21.3170 N   0  0  0  0  0  0  0  0  0  0  0  0
   51.3920   52.9060   22.1770 H   0  0  0  0  0  0  0  0  0  0  0  0
   52.3130   54.8290   19.9460 O   0  0  0  0  0  0  0  0  0  0  0  0
   51.4520   55.5300   22.0290 C   0  0  0  0  0  0  0  0  0  0  0  0
   48.3630   57.1940   20.6580 C   0  0  0  0  0  0  0  0  0  0  0  0
   49.3250   55.9850   20.7320 C   0  0  0  0  0  0  0  0  0  0  0  0
   50.6120   56.6030   21.3350 C   0  0  1  0  0  0  0  0  0  0  0  0
   50.0880   57.5820   22.3210 N   0  0  0  0  0  0  0  0  0  0  0  0
   50.7860   58.2840   22.5190 H   0  0  0  0  0  0  0  0  0  0  0  0
   49.8180   57.1110   23.1710 H   0  0  0  0  0  0  0  0  0  0  0  0
   48.9070   58.2040   21.6850 C   0  0  0  0  0  0  0  0  0  0  0  0
   52.1530   52.1670   20.3380 C   0  0  0  0  0  0  0  0  0  0  0  0
   50.9090   51.5490   19.6990 C   0  0  0  0  0  0  0  0  0  0  0  0
   51.1940   51.2350   18.2290 C   0  0  0  0  0  0  0  0  0  0  0  0
   50.0100   51.4510   17.4580 O   0  0  0  0  0  0  0  0  0  0  0  0
   49.3520   50.2480   17.0530 C   0  0  0  0  0  0  0  0  0  0  0  0
   48.0050   50.1380   17.7700 C   0  0  1  0  0  0  0  0  0  0  0  0
   46.8720   49.8790   16.7460 C   0  0  0  0  0  0  0  0  0  0  0  0
   45.8140   49.1820   17.6460 C   0  0  0  0  0  0  0  0  0  0  0  0
   46.6970   48.3850   18.6310 C   0  0  0  0  0  0  0  0  0  0  0  0
   47.9950   48.9950   18.6400 O   0  0  0  0  0  0  0  0  0  0  0  0
  1  2  1  0  0  0  0
  1  5  1  0  0  0  0
  2  3  1  0  0  0  0
  4  1  2  0  0  0  0
  6  7  1  0  0  0  0
  6 12  1  0  0  0  0
  7  8  1  0  0  0  0
  8  5  1  1  0  0  0
  8  9  1  0  0  0  0
  9 10  1  0  0  0  0
  9 11  1  0  0  0  0
 12  9  1  0  0  0  0
 13  2  1  0  0  0  0
 14 13  1  0  0  0  0
 15 14  1  0  0  0  0
 16 15  1  0  0  0  0
 17 16  1  0  0  0  0
 18 17  1  6  0  0  0
 18 22  1  0  0  0  0
 19 20  1  0  0  0  0
 19 18  1  0  0  0  0
 20 21  1  0  0  0  0
 21 22  1  0  0  0  0
M  END
>  <MODEL>
8

>  <REMARK>
  Name = ZINC42171309
                            x       y       z     vdW  Elec       q    Type
                         _______ _______ _______ _____ _____    ______ ____

>  <TORSDO>
F 8

>  <minimizedAffinity>
-5.5703795591395728

$$$$
ZINC42171309
 OpenBabel10211212543D

 22 23  0  0  1  0  0  0  0  0999 V2000
   48.3300   48.9660   18.2960 C   0  0  0  0  0  0  0  0  0  0  0  0
   48.6100   50.2600   18.0410 N   0  0  0  0  0  0  0  0  0  0  0  0
   47.9150   50.9320   18.1250 H   0  0  0  0  0  0  0  0  0  0  0  0
   49.1990   48.1270   18.1910 O   0  0  0  0  0  0  0  0  0  0  0  0
   46.9380   48.5630   18.7100 C   0  0  0  0  0  0  0  0  0  0  0  0
   44.7660   47.8540   15.7150 C   0  0  0  0  0  0  0  0  0  0  0  0
   44.9440   48.3750   17.1600 C   0  0  0  0  0  0  0  0  0  0  0  0
   46.2920   47.7430   17.5920 C   0  0  1  0  0  0  0  0  0  0  0  0
   47.1080   47.8050   16.3530 N   0  0  0  0  0  0  0  0  0  0  0  0
   47.8540   47.1260   16.3930 H   0  0  0  0  0  0  0  0  0  0  0  0
   47.4870   48.7320   16.2310 H   0  0  0  0  0  0  0  0  0  0  0  0
   46.1840   47.4820   15.2440 C   0  0  0  0  0  0  0  0  0  0  0  0
   49.9630   50.6520   17.6380 C   0  0  0  0  0  0  0  0  0  0  0  0
   50.4140   51.8540   18.4680 C   0  0  0  0  0  0  0  0  0  0  0  0
   51.1020   51.3630   19.7440 C   0  0  0  0  0  0  0  0  0  0  0  0
   50.6080   52.1000   20.8650 O   0  0  0  0  0  0  0  0  0  0  0  0
   51.6280   52.7440   21.6320 C   0  0  0  0  0  0  0  0  0  0  0  0
   51.6800   54.2280   21.2650 C   0  0  1  0  0  0  0  0  0  0  0  0
   50.2640   54.7450   20.9100 C   0  0  0  0  0  0  0  0  0  0  0  0
   50.4160   56.2600   21.2140 C   0  0  0  0  0  0  0  0  0  0  0  0
   51.3870   56.2570   22.4160 C   0  0  0  0  0  0  0  0  0  0  0  0
   52.0920   55.0080   22.3990 O   0  0  0  0  0  0  0  0  0  0  0  0
  1  5  1  0  0  0  0
  2  3  1  0  0  0  0
  2  1  1  0  0  0  0
  4  1  2  0  0  0  0
  6  7  1  0  0  0  0
  7  8  1  0  0  0  0
  8  5  1  6  0  0  0
  9 10  1  0  0  0  0
  9  8  1  0  0  0  0
 11  9  1  0  0  0  0
 12  6  1  0  0  0  0
 12  9  1  0  0  0  0
 13  2  1  0  0  0  0
 13 14  1  0  0  0  0
 14 15  1  0  0  0  0
 15 16  1  0  0  0  0
 16 17  1  0  0  0  0
 18 17  1  1  0  0  0
 18 22  1  0  0  0  0
 19 20  1  0  0  0  0
 19 18  1  0  0  0  0
 20 21  1  0  0  0  0
 22 21  1  0  0  0  0
M  END
>  <MODEL>
9

>  <REMARK>
  Name = ZINC42171309
                            x       y       z     vdW  Elec       q    Type
                         _______ _______ _______ _____ _____    ______ ____

>  <TORSDO>
F 8

>  <minimizedAffinity>
-5.5450412745080682

$$$$
ZINC66560712
 OpenBabel10211212563D

 23 23  0  0  1  0  0  0  0  0999 V2000
   50.0950   52.7750   19.3490 C   0  0  0  0  0  0  0  0  0  0  0  0
   50.6120   51.5040   18.8260 N   0  0  0  0  0  0  0  0  0  0  0  0
   51.5110   51.6560   18.3920 H   0  0  0  0  0  0  0  0  0  0  0  0
   49.6670   50.9550   17.8310 C   0  0  0  0  0  0  0  0  0  0  0  0
   49.7220   49.4210   18.0380 C   0  0  0  0  0  0  0  0  0  0  0  0
   49.8660   49.3180   19.5800 C   0  0  0  0  0  0  0  0  0  0  0  0
   50.7510   50.5340   19.9280 C   0  0  1  0  0  0  0  0  0  0  0  0
   52.1890   50.1020   20.0530 C   0  0  0  0  0  0  0  0  0  0  0  0
   52.5130   48.7980   19.9550 N   0  0  0  0  0  0  0  0  0  0  0  0
   53.4390   48.5200   20.0360 H   0  0  0  0  0  0  0  0  0  0  0  0
   51.8190   48.1360   19.8040 H   0  0  0  0  0  0  0  0  0  0  0  0
   53.0560   50.9300   20.2420 O   0  0  0  0  0  0  0  0  0  0  0  0
   50.9250   55.0840   19.6670 N   0  0  0  0  0  0  0  0  0  0  0  0
   51.1190   53.8600   19.1350 C   0  0  0  0  0  0  0  0  0  0  0  0
   52.1160   53.6330   18.4840 O   0  0  0  0  0  0  0  0  0  0  0  0
   51.9200   56.1390   19.4590 C   0  0  0  0  0  0  0  0  0  0  0  0
   52.6720   56.3970   20.7660 C   0  0  0  0  0  0  0  0  0  0  0  0
   52.9420   58.7270   21.6250 C   0  0  0  0  0  0  0  0  0  0  0  0
   53.4840   57.6870   20.6420 C   0  0  0  0  0  0  0  0  0  0  0  0
   49.7200   55.3590   20.4540 C   0  0  0  0  0  0  0  0  0  0  0  0
   48.8830   56.4250   19.7460 C   0  0  0  0  0  0  0  0  0  0  0  0
   48.2490   57.3510   20.7870 C   0  0  0  0  0  0  0  0  0  0  0  0
   49.3250   57.8380   21.7590 C   0  0  0  0  0  0  0  0  0  0  0  0
  2  1  1  0  0  0  0
  2  7  1  0  0  0  0
  3  2  1  0  0  0  0
  4  5  1  0  0  0  0
  4  2  1  0  0  0  0
  5  6  1  0  0  0  0
  6  7  1  0  0  0  0
  7  8  1  6  0  0  0
  8 12  2  0  0  0  0
  9 10  1  0  0  0  0
  9  8  1  0  0  0  0
 11  9  1  0  0  0  0
 13 20  1  0  0  0  0
 14  1  1  0  0  0  0
 14 13  1  0  0  0  0
 15 14  2  0  0  0  0
 16 13  1  0  0  0  0
 16 17  1  0  0  0  0
 19 17  1  0  0  0  0
 19 18  1  0  0  0  0
 21 20  1  0  0  0  0
 21 22  1  0  0  0  0
 22 23  1  0  0  0  0
M  END
>  <MODEL>
1

>  <REMARK>
  Name = ZINC66560712
                            x       y       z     vdW  Elec       q    Type
                         _______ _______ _______ _____ _____    ______ ____

>  <TORSDO>
F 9

>  <minimizedAffinity>
-6.8370022597020563

$$$$
ZINC66560712
 OpenBabel10211212563D

 23 23  0  0  1  0  0  0  0  0999 V2000
   50.1080   52.9650   19.0380 C   0  0  0  0  0  0  0  0  0  0  0  0
   49.6660   52.6700   17.6690 N   0  0  0  0  0  0  0  0  0  0  0  0
   50.4470   52.7520   17.0350 H   0  0  0  0  0  0  0  0  0  0  0  0
   48.6050   53.6190   17.2730 C   0  0  0  0  0  0  0  0  0  0  0  0
   47.6340   52.7840   16.4000 C   0  0  0  0  0  0  0  0  0  0  0  0
   47.6580   51.4140   17.1280 C   0  0  0  0  0  0  0  0  0  0  0  0
   49.1210   51.3020   17.6080 C   0  0  1  0  0  0  0  0  0  0  0  0
   49.9180   50.4740   16.6340 C   0  0  0  0  0  0  0  0  0  0  0  0
   51.2620   50.5710   16.6070 N   0  0  0  0  0  0  0  0  0  0  0  0
   51.7750   50.0380   15.9800 H   0  0  0  0  0  0  0  0  0  0  0  0
   51.7160   51.1750   17.2160 H   0  0  0  0  0  0  0  0  0  0  0  0
   49.3500   49.7180   15.8730 O   0  0  0  0  0  0  0  0  0  0  0  0
   50.9640   55.2110   19.6240 N   0  0  0  0  0  0  0  0  0  0  0  0
   51.1720   54.0320   19.0040 C   0  0  0  0  0  0  0  0  0  0  0  0
   52.2140   53.8300   18.4180 O   0  0  0  0  0  0  0  0  0  0  0  0
   51.9980   56.2480   19.5920 C   0  0  0  0  0  0  0  0  0  0  0  0
   52.5610   56.4530   20.9990 C   0  0  0  0  0  0  0  0  0  0  0  0
   52.8960   58.8280   21.7000 C   0  0  0  0  0  0  0  0  0  0  0  0
   53.5360   57.6310   20.9930 C   0  0  0  0  0  0  0  0  0  0  0  0
   49.7050   55.4550   20.3320 C   0  0  0  0  0  0  0  0  0  0  0  0
   48.9960   56.6590   19.7090 C   0  0  0  0  0  0  0  0  0  0  0  0
   48.2320   57.4190   20.7960 C   0  0  0  0  0  0  0  0  0  0  0  0
   49.2210   57.9750   21.8220 C   0  0  0  0  0  0  0  0  0  0  0  0
  2  1  1  0  0  0  0
  3  2  1  0  0  0  0
  4  2  1  0  0  0  0
  5  6  1  0  0  0  0
  5  4  1  0  0  0  0
  6  7  1  0  0  0  0
  7  8  1  6  0  0  0
  7  2  1  0  0  0  0
  9  8  1  0  0  0  0
  9 11  1  0  0  0  0
 10  9  1  0  0  0  0
 12  8  2  0  0  0  0
 13 20  1  0  0  0  0
 14  1  1  0  0  0  0
 14 13  1  0  0  0  0
 15 14  2  0  0  0  0
 16 13  1  0  0  0  0
 16 17  1  0  0  0  0
 19 17  1  0  0  0  0
 19 18  1  0  0  0  0
 21 20  1  0  0  0  0
 21 22  1  0  0  0  0
 22 23  1  0  0  0  0
M  END
>  <MODEL>
2

>  <REMARK>
  Name = ZINC66560712
                            x       y       z     vdW  Elec       q    Type
                         _______ _______ _______ _____ _____    ______ ____

>  <TORSDO>
F 9

>  <minimizedAffinity>
-6.6786244977140541

$$$$
ZINC66560712
 OpenBabel10211212563D

 23 23  0  0  1  0  0  0  0  0999 V2000
   50.9110   51.0070   18.1790 C   0  0  0  0  0  0  0  0  0  0  0  0
   50.7840   52.1130   19.1360 N   0  0  0  0  0  0  0  0  0  0  0  0
   50.1000   51.8770   19.8400 H   0  0  0  0  0  0  0  0  0  0  0  0
   50.3600   53.3380   18.4260 C   0  0  0  0  0  0  0  0  0  0  0  0
   51.1050   54.4900   19.1470 C   0  0  0  0  0  0  0  0  0  0  0  0
   52.4720   53.8290   19.4640 C   0  0  0  0  0  0  0  0  0  0  0  0
   52.0870   52.3680   19.7760 C   0  0  1  0  0  0  0  0  0  0  0  0
   51.9740   52.1740   21.2660 C   0  0  0  0  0  0  0  0  0  0  0  0
   51.9290   50.9310   21.7840 N   0  0  0  0  0  0  0  0  0  0  0  0
   51.8560   50.8070   22.7430 H   0  0  0  0  0  0  0  0  0  0  0  0
   51.9690   50.1600   21.1960 H   0  0  0  0  0  0  0  0  0  0  0  0
   51.9240   53.1390   22.0000 O   0  0  0  0  0  0  0  0  0  0  0  0
   49.1660   49.3380   17.6400 N   0  0  0  0  0  0  0  0  0  0  0  0
   49.9700   49.8950   18.5670 C   0  0  0  0  0  0  0  0  0  0  0  0
   49.9350   49.5040   19.7150 O   0  0  0  0  0  0  0  0  0  0  0  0
   48.2520   48.2570   18.0170 C   0  0  0  0  0  0  0  0  0  0  0  0
   46.8910   48.8460   18.3930 C   0  0  0  0  0  0  0  0  0  0  0  0
   44.5930   47.9910   17.9160 C   0  0  0  0  0  0  0  0  0  0  0  0
   45.9000   47.7120   18.6610 C   0  0  0  0  0  0  0  0  0  0  0  0
   49.2080   49.8100   16.2540 C   0  0  0  0  0  0  0  0  0  0  0  0
   48.7900   48.6760   15.3160 C   0  0  0  0  0  0  0  0  0  0  0  0
   47.5440   49.0940   14.5320 C   0  0  0  0  0  0  0  0  0  0  0  0
   46.4630   48.0220   14.6820 C   0  0  0  0  0  0  0  0  0  0  0  0
  1 14  1  0  0  0  0
  1  2  1  0  0  0  0
  2  7  1  0  0  0  0
  2  3  1  0  0  0  0
  4  2  1  0  0  0  0
  4  5  1  0  0  0  0
  5  6  1  0  0  0  0
  6  7  1  0  0  0  0
  7  8  1  1  0  0  0
  8  9  1  0  0  0  0
  8 12  2  0  0  0  0
  9 10  1  0  0  0  0
 11  9  1  0  0  0  0
 13 16  1  0  0  0  0
 13 14  1  0  0  0  0
 14 15  2  0  0  0  0
 16 17  1  0  0  0  0
 17 19  1  0  0  0  0
 18 19  1  0  0  0  0
 20 13  1  0  0  0  0
 21 20  1  0  0  0  0
 22 23  1  0  0  0  0
 22 21  1  0  0  0  0
M  END
>  <MODEL>
3

>  <REMARK>
  Name = ZINC66560712
                            x       y       z     vdW  Elec       q    Type
                         _______ _______ _______ _____ _____    ______ ____

>  <TORSDO>
F 9

>  <minimizedAffinity>
-6.5961700840309883

$$$$
ZINC66560712
 OpenBabel10211212563D

 23 23  0  0  1  0  0  0  0  0999 V2000
   48.8960   50.3010   17.5580 C   0  0  0  0  0  0  0  0  0  0  0  0
   50.1810   49.9590   18.1830 N   0  0  0  0  0  0  0  0  0  0  0  0
   50.7680   49.4840   17.5140 H   0  0  0  0  0  0  0  0  0  0  0  0
   49.9490   49.0820   19.3500 C   0  0  0  0  0  0  0  0  0  0  0  0
   51.0140   49.5150   20.3880 C   0  0  0  0  0  0  0  0  0  0  0  0
   51.0610   51.0500   20.1670 C   0  0  0  0  0  0  0  0  0  0  0  0
   50.8490   51.1890   18.6450 C   0  0  1  0  0  0  0  0  0  0  0  0
   52.1800   51.3400   17.9540 C   0  0  0  0  0  0  0  0  0  0  0  0
   52.4630   50.5990   16.8650 N   0  0  0  0  0  0  0  0  0  0  0  0
   53.3200   50.6970   16.4200 H   0  0  0  0  0  0  0  0  0  0  0  0
   51.8090   49.9680   16.5250 H   0  0  0  0  0  0  0  0  0  0  0  0
   52.9980   52.1300   18.3790 O   0  0  0  0  0  0  0  0  0  0  0  0
   47.3010   48.6700   16.6000 N   0  0  0  0  0  0  0  0  0  0  0  0
   48.5240   49.2350   16.5590 C   0  0  0  0  0  0  0  0  0  0  0  0
   49.3260   48.8860   15.7180 O   0  0  0  0  0  0  0  0  0  0  0  0
   46.9390   47.6350   15.6280 C   0  0  0  0  0  0  0  0  0  0  0  0
   46.0650   48.2460   14.5320 C   0  0  0  0  0  0  0  0  0  0  0  0
   44.5260   46.4840   13.6550 C   0  0  0  0  0  0  0  0  0  0  0  0
   44.6530   47.6640   14.6210 C   0  0  0  0  0  0  0  0  0  0  0  0
   46.3320   49.0910   17.6150 C   0  0  0  0  0  0  0  0  0  0  0  0
   46.1520   47.9730   18.6420 C   0  0  0  0  0  0  0  0  0  0  0  0
   44.7080   47.4690   18.6010 C   0  0  0  0  0  0  0  0  0  0  0  0
   44.3400   46.8620   19.9560 C   0  0  0  0  0  0  0  0  0  0  0  0
  1  2  1  0  0  0  0
  2  7  1  0  0  0  0
  2  4  1  0  0  0  0
  3  2  1  0  0  0  0
  4  5  1  0  0  0  0
  6  5  1  0  0  0  0
  7  8  1  1  0  0  0
  7  6  1  0  0  0  0
  8 12  2  0  0  0  0
  9  8  1  0  0  0  0
 10  9  1  0  0  0  0
 11  9  1  0  0  0  0
 13 20  1  0  0  0  0
 14 13  1  0  0  0  0
 14  1  1  0  0  0  0
 15 14  2  0  0  0  0
 16 13  1  0  0  0  0
 17 19  1  0  0  0  0
 17 16  1  0  0  0  0
 18 19  1  0  0  0  0
 20 21  1  0  0  0  0
 22 21  1  0  0  0  0
 22 23  1  0  0  0  0
M  END
>  <MODEL>
4

>  <REMARK>
  Name = ZINC66560712
                            x       y       z     vdW  Elec       q    Type
                         _______ _______ _______ _____ _____    ______ ____

>  <TORSDO>
F 9

>  <minimizedAffinity>
-6.3356509304254525

$$$$
ZINC66560712
 OpenBabel10211212563D

 23 23  0  0  1  0  0  0  0  0999 V2000
   49.8890   51.8490   17.9230 C   0  0  0  0  0  0  0  0  0  0  0  0
   50.3330   51.4570   19.2660 N   0  0  0  0  0  0  0  0  0  0  0  0
   49.7180   50.7460   19.6340 H   0  0  0  0  0  0  0  0  0  0  0  0
   50.3180   52.6350   20.1590 C   0  0  0  0  0  0  0  0  0  0  0  0
   51.5420   52.4420   21.0890 C   0  0  0  0  0  0  0  0  0  0  0  0
   52.5800   51.8220   20.1170 C   0  0  0  0  0  0  0  0  0  0  0  0
   51.7100   50.9350   19.2000 C   0  0  1  0  0  0  0  0  0  0  0  0
   51.7430   49.5090   19.6860 C   0  0  0  0  0  0  0  0  0  0  0  0
   52.9230   48.8830   19.8630 N   0  0  0  0  0  0  0  0  0  0  0  0
   52.9440   47.9650   20.1750 H   0  0  0  0  0  0  0  0  0  0  0  0
   53.7520   49.3510   19.6760 H   0  0  0  0  0  0  0  0  0  0  0  0
   50.7060   48.9240   19.9190 O   0  0  0  0  0  0  0  0  0  0  0  0
   48.8920   49.7990   16.9640 N   0  0  0  0  0  0  0  0  0  0  0  0
   49.9340   50.6520   17.0080 C   0  0  0  0  0  0  0  0  0  0  0  0
   50.9090   50.4570   16.3140 O   0  0  0  0  0  0  0  0  0  0  0  0
   48.9360   48.6350   16.0740 C   0  0  0  0  0  0  0  0  0  0  0  0
   48.0230   48.8760   14.8710 C   0  0  0  0  0  0  0  0  0  0  0  0
   45.9370   48.1330   13.7150 C   0  0  0  0  0  0  0  0  0  0  0  0
   46.9060   47.8310   14.8600 C   0  0  0  0  0  0  0  0  0  0  0  0
   47.7140   50.0340   17.8020 C   0  0  0  0  0  0  0  0  0  0  0  0
   47.4730   48.8160   18.6950 C   0  0  0  0  0  0  0  0  0  0  0  0
   46.0690   48.2640   18.4360 C   0  0  0  0  0  0  0  0  0  0  0  0
   45.2830   49.2530   17.5740 C   0  0  0  0  0  0  0  0  0  0  0  0
  1  2  1  0  0  0  0
  2  3  1  0  0  0  0
  2  4  1  0  0  0  0
  4  5  1  0  0  0  0
  6  5  1  0  0  0  0
  7  2  1  0  0  0  0
  7  8  1  1  0  0  0
  7  6  1  0  0  0  0
  8  9  1  0  0  0  0
  8 12  2  0  0  0  0
  9 10  1  0  0  0  0
 11  9  1  0  0  0  0
 13 14  1  0  0  0  0
 13 20  1  0  0  0  0
 14  1  1  0  0  0  0
 15 14  2  0  0  0  0
 16 13  1  0  0  0  0
 17 16  1  0  0  0  0
 18 19  1  0  0  0  0
 19 17  1  0  0  0  0
 20 21  1  0  0  0  0
 22 21  1  0  0  0  0
 23 22  1  0  0  0  0
M  END
>  <MODEL>
5

>  <REMARK>
  Name = ZINC66560712
                            x       y       z     vdW  Elec       q    Type
                         _______ _______ _______ _____ _____    ______ ____

>  <TORSDO>
F 9

>  <minimizedAffinity>
-6.3038505977389789

$$$$
ZINC66560712
 OpenBabel10211212563D

 23 23  0  0  1  0  0  0  0  0999 V2000
   49.3390   51.6300   17.8550 C   0  0  0  0  0  0  0  0  0  0  0  0
   50.5740   51.6180   18.6490 N   0  0  0  0  0  0  0  0  0  0  0  0
   51.3690   51.4950   18.0400 H   0  0  0  0  0  0  0  0  0  0  0  0
   50.5250   50.5120   19.6280 C   0  0  0  0  0  0  0  0  0  0  0  0
   51.2320   51.0680   20.8890 C   0  0  0  0  0  0  0  0  0  0  0  0
   50.7600   52.5460   20.8870 C   0  0  0  0  0  0  0  0  0  0  0  0
   50.7030   52.8900   19.3840 C   0  0  1  0  0  0  0  0  0  0  0  0
   51.9690   53.5950   18.9700 C   0  0  0  0  0  0  0  0  0  0  0  0
   52.2260   54.8390   19.4200 N   0  0  0  0  0  0  0  0  0  0  0  0
   53.0410   55.2920   19.1540 H   0  0  0  0  0  0  0  0  0  0  0  0
   51.5950   55.2810   20.0100 H   0  0  0  0  0  0  0  0  0  0  0  0
   52.7570   53.0420   18.2320 O   0  0  0  0  0  0  0  0  0  0  0  0
   48.3640   49.6420   16.7490 N   0  0  0  0  0  0  0  0  0  0  0  0
   49.3850   50.5180   16.8380 C   0  0  0  0  0  0  0  0  0  0  0  0
   50.3410   50.4120   16.0990 O   0  0  0  0  0  0  0  0  0  0  0  0
   48.4090   48.5630   15.7600 C   0  0  0  0  0  0  0  0  0  0  0  0
   47.4310   48.8680   14.6250 C   0  0  0  0  0  0  0  0  0  0  0  0
   45.4530   48.0220   13.3550 C   0  0  0  0  0  0  0  0  0  0  0  0
   46.3780   47.7620   14.5460 C   0  0  0  0  0  0  0  0  0  0  0  0
   47.2090   49.7710   17.6410 C   0  0  0  0  0  0  0  0  0  0  0  0
   47.2210   48.6280   18.6580 C   0  0  0  0  0  0  0  0  0  0  0  0
   45.9000   47.8600   18.5780 C   0  0  0  0  0  0  0  0  0  0  0  0
   44.9040   48.6450   17.7220 C   0  0  0  0  0  0  0  0  0  0  0  0
  1  2  1  0  0  0  0
  2  7  1  0  0  0  0
  2  4  1  0  0  0  0
  3  2  1  0  0  0  0
  4  5  1  0  0  0  0
  6  5  1  0  0  0  0
  7  8  1  1  0  0  0
  7  6  1  0  0  0  0
  8  9  1  0  0  0  0
  9 11  1  0  0  0  0
 10  9  1  0  0  0  0
 12  8  2  0  0  0  0
 13 14  1  0  0  0  0
 13 20  1  0  0  0  0
 14  1  1  0  0  0  0
 15 14  2  0  0  0  0
 16 13  1  0  0  0  0
 17 16  1  0  0  0  0
 18 19  1  0  0  0  0
 19 17  1  0  0  0  0
 20 21  1  0  0  0  0
 22 21  1  0  0  0  0
 23 22  1  0  0  0  0
M  END
>  <MODEL>
6

>  <REMARK>
  Name = ZINC66560712
                            x       y       z     vdW  Elec       q    Type
                         _______ _______ _______ _____ _____    ______ ____

>  <TORSDO>
F 9

>  <minimizedAffinity>
-6.2716472549677276

$$$$
ZINC66560712
 OpenBabel10211212563D

 23 23  0  0  1  0  0  0  0  0999 V2000
   49.6220   52.0570   17.6650 C   0  0  0  0  0  0  0  0  0  0  0  0
   49.4200   50.6470   17.3050 N   0  0  0  0  0  0  0  0  0  0  0  0
   49.9360   50.0570   17.9410 H   0  0  0  0  0  0  0  0  0  0  0  0
   49.8880   50.4150   15.9230 C   0  0  0  0  0  0  0  0  0  0  0  0
   48.8940   49.3800   15.3380 C   0  0  0  0  0  0  0  0  0  0  0  0
   47.5550   49.8370   15.9750 C   0  0  0  0  0  0  0  0  0  0  0  0
   47.9840   50.3190   17.3770 C   0  0  1  0  0  0  0  0  0  0  0  0
   47.7590   49.2230   18.3870 C   0  0  0  0  0  0  0  0  0  0  0  0
   48.7850   48.7730   19.1350 N   0  0  0  0  0  0  0  0  0  0  0  0
   48.6390   48.0680   19.7850 H   0  0  0  0  0  0  0  0  0  0  0  0
   49.6700   49.1540   19.0230 H   0  0  0  0  0  0  0  0  0  0  0  0
   46.6510   48.7470   18.5270 O   0  0  0  0  0  0  0  0  0  0  0  0
   50.1350   53.3320   19.7220 N   0  0  0  0  0  0  0  0  0  0  0  0
   50.1310   52.1460   19.0810 C   0  0  0  0  0  0  0  0  0  0  0  0
   50.5380   51.1520   19.6430 O   0  0  0  0  0  0  0  0  0  0  0  0
   50.6290   53.4190   21.0980 C   0  0  0  0  0  0  0  0  0  0  0  0
   51.7670   54.4380   21.1690 C   0  0  0  0  0  0  0  0  0  0  0  0
   52.1310   56.7400   22.0700 C   0  0  0  0  0  0  0  0  0  0  0  0
   51.5570   55.3550   22.3760 C   0  0  0  0  0  0  0  0  0  0  0  0
   49.6440   54.5340   19.0430 C   0  0  0  0  0  0  0  0  0  0  0  0
   48.4480   55.0990   19.8100 C   0  0  0  0  0  0  0  0  0  0  0  0
   48.4220   56.6220   19.6660 C   0  0  0  0  0  0  0  0  0  0  0  0
   48.5410   57.2670   21.0480 C   0  0  0  0  0  0  0  0  0  0  0  0
  1 14  1  0  0  0  0
  2  7  1  0  0  0  0
  2  1  1  0  0  0  0
  2  3  1  0  0  0  0
  4  2  1  0  0  0  0
  5  4  1  0  0  0  0
  5  6  1  0  0  0  0
  6  7  1  0  0  0  0
  7  8  1  6  0  0  0
  8 12  2  0  0  0  0
  8  9  1  0  0  0  0
  9 10  1  0  0  0  0
 11  9  1  0  0  0  0
 13 16  1  0  0  0  0
 14 15  2  0  0  0  0
 14 13  1  0  0  0  0
 16 17  1  0  0  0  0
 17 19  1  0  0  0  0
 18 19  1  0  0  0  0
 20 13  1  0  0  0  0
 20 21  1  0  0  0  0
 22 21  1  0  0  0  0
 22 23  1  0  0  0  0
M  END
>  <MODEL>
7

>  <REMARK>
  Name = ZINC66560712
                            x       y       z     vdW  Elec       q    Type
                         _______ _______ _______ _____ _____    ______ ____

>  <TORSDO>
F 9

>  <minimizedAffinity>
-6.1642482472592794

$$$$
ZINC66560712
 OpenBabel10211212563D

 23 23  0  0  1  0  0  0  0  0999 V2000
   51.6670   53.2430   20.4460 C   0  0  0  0  0  0  0  0  0  0  0  0
   51.1680   51.9370   19.9970 N   0  0  0  0  0  0  0  0  0  0  0  0
   50.2770   52.0520   19.5370 H   0  0  0  0  0  0  0  0  0  0  0  0
   51.0110   51.0390   21.1610 C   0  0  0  0  0  0  0  0  0  0  0  0
   51.4090   49.6370   20.6350 C   0  0  0  0  0  0  0  0  0  0  0  0
   52.5750   49.9830   19.6720 C   0  0  0  0  0  0  0  0  0  0  0  0
   52.1350   51.3310   19.0640 C   0  0  1  0  0  0  0  0  0  0  0  0
   51.4800   51.1000   17.7260 C   0  0  0  0  0  0  0  0  0  0  0  0
   52.1900   50.5730   16.7090 N   0  0  0  0  0  0  0  0  0  0  0  0
   51.7690   50.4250   15.8480 H   0  0  0  0  0  0  0  0  0  0  0  0
   53.1240   50.3420   16.8390 H   0  0  0  0  0  0  0  0  0  0  0  0
   50.3130   51.3890   17.5640 O   0  0  0  0  0  0  0  0  0  0  0  0
   50.9880   55.6140   20.2430 N   0  0  0  0  0  0  0  0  0  0  0  0
   50.6720   54.3140   20.0770 C   0  0  0  0  0  0  0  0  0  0  0  0
   49.5870   54.0060   19.6320 O   0  0  0  0  0  0  0  0  0  0  0  0
   50.0220   56.6550   19.8850 C   0  0  0  0  0  0  0  0  0  0  0  0
   48.8830   56.6690   20.9050 C   0  0  0  0  0  0  0  0  0  0  0  0
   47.5350   58.5970   20.0630 C   0  0  0  0  0  0  0  0  0  0  0  0
   48.4620   58.1130   21.1810 C   0  0  0  0  0  0  0  0  0  0  0  0
   52.2990   55.9860   20.7810 C   0  0  0  0  0  0  0  0  0  0  0  0
   52.1130   56.9390   21.9630 C   0  0  0  0  0  0  0  0  0  0  0  0
   53.0610   58.1300   21.8130 C   0  0  0  0  0  0  0  0  0  0  0  0
   54.0990   57.8240   20.7310 C   0  0  0  0  0  0  0  0  0  0  0  0
  2  1  1  0  0  0  0
  2  4  1  0  0  0  0
  3  2  1  0  0  0  0
  5  4  1  0  0  0  0
  6  5  1  0  0  0  0
  7  8  1  1  0  0  0
  7  6  1  0  0  0  0
  7  2  1  0  0  0  0
  9 11  1  0  0  0  0
  9  8  1  0  0  0  0
 10  9  1  0  0  0  0
 12  8  2  0  0  0  0
 13 20  1  0  0  0  0
 14 13  1  0  0  0  0
 14  1  1  0  0  0  0
 15 14  2  0  0  0  0
 16 13  1  0  0  0  0
 16 17  1  0  0  0  0
 17 19  1  0  0  0  0
 18 19  1  0  0  0  0
 20 21  1  0  0  0  0
 22 21  1  0  0  0  0
 23 22  1  0  0  0  0
M  END
>  <MODEL>
8

>  <REMARK>
  Name = ZINC66560712
                            x       y       z     vdW  Elec       q    Type
                         _______ _______ _______ _____ _____    ______ ____

>  <TORSDO>
F 9

>  <minimizedAffinity>
-5.8477875698689994

$$$$
ZINC66560712
 OpenBabel10211212563D

 23 23  0  0  1  0  0  0  0  0999 V2000
   50.3510   54.3900   20.3120 C   0  0  0  0  0  0  0  0  0  0  0  0
   50.2990   55.8410   20.0900 N   0  0  0  0  0  0  0  0  0  0  0  0
   50.0650   56.0290   19.1260 H   0  0  0  0  0  0  0  0  0  0  0  0
   51.6130   56.4400   20.4060 C   0  0  0  0  0  0  0  0  0  0  0  0
   51.2790   57.8140   21.0390 C   0  0  0  0  0  0  0  0  0  0  0  0
   50.0050   57.4790   21.8600 C   0  0  0  0  0  0  0  0  0  0  0  0
   49.2840   56.4420   20.9740 C   0  0  1  0  0  0  0  0  0  0  0  0
   48.2230   57.1230   20.1480 C   0  0  0  0  0  0  0  0  0  0  0  0
   48.2380   57.0130   18.8060 N   0  0  0  0  0  0  0  0  0  0  0  0
   47.5550   57.4510   18.2740 H   0  0  0  0  0  0  0  0  0  0  0  0
   48.9340   56.4950   18.3700 H   0  0  0  0  0  0  0  0  0  0  0  0
   47.3530   57.7700   20.6930 O   0  0  0  0  0  0  0  0  0  0  0  0
   50.2050   52.3570   18.9110 N   0  0  0  0  0  0  0  0  0  0  0  0
   49.9510   53.6730   19.0480 C   0  0  0  0  0  0  0  0  0  0  0  0
   49.4010   54.2810   18.1540 O   0  0  0  0  0  0  0  0  0  0  0  0
   49.8160   51.6600   17.6830 C   0  0  0  0  0  0  0  0  0  0  0  0
   48.6790   50.6830   17.9880 C   0  0  0  0  0  0  0  0  0  0  0  0
   47.8500   52.1260   16.1240 C   0  0  0  0  0  0  0  0  0  0  0  0
   47.4860   50.9880   17.0800 C   0  0  0  0  0  0  0  0  0  0  0  0
   50.8700   51.6220   19.9900 C   0  0  0  0  0  0  0  0  0  0  0  0
   52.2510   51.1630   19.5180 C   0  0  0  0  0  0  0  0  0  0  0  0
   52.4250   49.6740   19.8230 C   0  0  0  0  0  0  0  0  0  0  0  0
   51.0890   49.0870   20.2820 C   0  0  0  0  0  0  0  0  0  0  0  0
  2  1  1  0  0  0  0
  2  4  1  0  0  0  0
  2  7  1  0  0  0  0
  3  2  1  0  0  0  0
  4  5  1  0  0  0  0
  5  6  1  0  0  0  0
  7  8  1  6  0  0  0
  7  6  1  0  0  0  0
  8 12  2  0  0  0  0
  9  8  1  0  0  0  0
 10  9  1  0  0  0  0
 11  9  1  0  0  0  0
 13 14  1  0  0  0  0
 13 20  1  0  0  0  0
 14  1  1  0  0  0  0
 15 14  2  0  0  0  0
 16 17  1  0  0  0  0
 16 13  1  0  0  0  0
 18 19  1  0  0  0  0
 19 17  1  0  0  0  0
 21 22  1  0  0  0  0
 21 20  1  0  0  0  0
 22 23  1  0  0  0  0
M  END
>  <MODEL>
9

>  <REMARK>
  Name = ZINC66560712
                            x       y       z     vdW  Elec       q    Type
                         _______ _______ _______ _____ _____    ______ ____

>  <TORSDO>
F 9

>  <minimizedAffinity>
-5.7496654152711493

$$$$
ZINC45467754
 OpenBabel10211212573D

 23 23  0  0  1  0  0  0  0  0999 V2000
   52.0980   56.8980   21.3900 C   0  0  2  0  0  0  0  0  0  0  0  0
   51.6790   55.9900   22.5460 C   0  0  0  0  0  0  0  0  0  0  0  0
   53.1640   57.8530   21.8600 C   0  0  0  0  0  0  0  0  0  0  0  0
   52.8320   59.1030   22.2370 N   0  0  0  0  0  0  0  0  0  0  0  0
   53.5190   59.7170   22.5400 H   0  0  0  0  0  0  0  0  0  0  0  0
   51.9050   59.3890   22.2060 H   0  0  0  0  0  0  0  0  0  0  0  0
   54.3230   57.4960   21.8990 O   0  0  0  0  0  0  0  0  0  0  0  0
   50.9330   57.6600   20.9180 N   0  0  0  0  0  0  0  0  0  0  0  0
   51.1760   58.6360   20.8480 H   0  0  0  0  0  0  0  0  0  0  0  0
   50.6520   57.3180   20.0110 H   0  0  0  0  0  0  0  0  0  0  0  0
   49.8240   57.4980   21.8690 C   0  0  0  0  0  0  0  0  0  0  0  0
   48.0920   56.7440   20.2340 C   0  0  0  0  0  0  0  0  0  0  0  0
   48.5080   57.8690   21.1840 C   0  0  0  0  0  0  0  0  0  0  0  0
   52.6460   56.0450   20.2440 C   0  0  0  0  0  0  0  0  0  0  0  0
   51.5680   55.8810   19.1700 C   0  0  0  0  0  0  0  0  0  0  0  0
   51.1530   54.4100   19.0870 C   0  0  0  0  0  0  0  0  0  0  0  0
   52.1990   53.6560   18.4690 O   0  0  0  0  0  0  0  0  0  0  0  0
   52.5810   52.4870   19.1980 C   0  0  0  0  0  0  0  0  0  0  0  0
   51.3280   51.7460   19.6660 C   0  0  1  0  0  0  0  0  0  0  0  0
   50.9470   50.6180   18.6680 C   0  0  0  0  0  0  0  0  0  0  0  0
   50.2230   49.6240   19.6110 C   0  0  0  0  0  0  0  0  0  0  0  0
   50.9420   49.6930   20.8530 O   0  0  0  0  0  0  0  0  0  0  0  0
   51.6080   50.9600   20.9660 C   0  0  0  0  0  0  0  0  0  0  0  0
  1 14  1  6  0  0  0
  1  3  1  0  0  0  0
  1  2  1  0  0  0  0
  3  7  2  0  0  0  0
  3  4  1  0  0  0  0
  4  5  1  0  0  0  0
  6  4  1  0  0  0  0
  8  1  1  0  0  0  0
  8 11  1  0  0  0  0
  9  8  1  0  0  0  0
 10  8  1  0  0  0  0
 12 13  1  0  0  0  0
 13 11  1  0  0  0  0
 15 14  1  0  0  0  0
 16 15  1  0  0  0  0
 17 16  1  0  0  0  0
 17 18  1  0  0  0  0
 19 18  1  6  0  0  0
 19 23  1  0  0  0  0
 20 21  1  0  0  0  0
 20 19  1  0  0  0  0
 21 22  1  0  0  0  0
 22 23  1  0  0  0  0
M  END
>  <MODEL>
1

>  <REMARK>
  Name = ZINC45467754
                            x       y       z     vdW  Elec       q    Type
                         _______ _______ _______ _____ _____    ______ ____

>  <TORSDO>
F 10

>  <minimizedAffinity>
-6.3847439324646258

$$$$
ZINC45467754
 OpenBabel10211212573D

 23 23  0  0  1  0  0  0  0  0999 V2000
   52.0310   56.8280   21.2060 C   0  0  2  0  0  0  0  0  0  0  0  0
   51.6790   55.9330   22.3950 C   0  0  0  0  0  0  0  0  0  0  0  0
   53.3060   57.5750   21.4990 C   0  0  0  0  0  0  0  0  0  0  0  0
   53.3050   58.5890   22.3870 N   0  0  0  0  0  0  0  0  0  0  0  0
   54.1260   59.0700   22.5750 H   0  0  0  0  0  0  0  0  0  0  0  0
   52.4820   58.8380   22.8380 H   0  0  0  0  0  0  0  0  0  0  0  0
   54.3340   57.2650   20.9350 O   0  0  0  0  0  0  0  0  0  0  0  0
   50.9420   57.7890   20.9780 N   0  0  0  0  0  0  0  0  0  0  0  0
   51.2650   58.7200   21.1950 H   0  0  0  0  0  0  0  0  0  0  0  0
   50.6570   57.7500   20.0100 H   0  0  0  0  0  0  0  0  0  0  0  0
   49.8020   57.4510   21.8400 C   0  0  0  0  0  0  0  0  0  0  0  0
   48.3190   56.3850   20.1360 C   0  0  0  0  0  0  0  0  0  0  0  0
   48.5020   57.6000   21.0470 C   0  0  0  0  0  0  0  0  0  0  0  0
   52.2200   55.9670   19.9560 C   0  0  0  0  0  0  0  0  0  0  0  0
   51.8370   54.5190   20.2730 C   0  0  0  0  0  0  0  0  0  0  0  0
   52.5550   53.5790   19.3030 C   0  0  0  0  0  0  0  0  0  0  0  0
   51.6610   53.2050   18.2520 O   0  0  0  0  0  0  0  0  0  0  0  0
   50.9880   51.9640   18.4760 C   0  0  0  0  0  0  0  0  0  0  0  0
   49.5180   52.1010   18.0720 C   0  0  1  0  0  0  0  0  0  0  0  0
   49.1590   53.5840   17.7870 C   0  0  0  0  0  0  0  0  0  0  0  0
   48.0030   53.4150   16.7680 C   0  0  0  0  0  0  0  0  0  0  0  0
   48.3690   52.2780   15.9700 O   0  0  0  0  0  0  0  0  0  0  0  0
   49.2590   51.4260   16.7070 C   0  0  0  0  0  0  0  0  0  0  0  0
  1 14  1  6  0  0  0
  1  3  1  0  0  0  0
  1  2  1  0  0  0  0
  3  4  1  0  0  0  0
  4  5  1  0  0  0  0
  4  6  1  0  0  0  0
  7  3  2  0  0  0  0
  8  9  1  0  0  0  0
  8  1  1  0  0  0  0
  8 11  1  0  0  0  0
 10  8  1  0  0  0  0
 12 13  1  0  0  0  0
 13 11  1  0  0  0  0
 14 15  1  0  0  0  0
 16 15  1  0  0  0  0
 17 18  1  0  0  0  0
 17 16  1  0  0  0  0
 19 18  1  6  0  0  0
 20 19  1  0  0  0  0
 21 20  1  0  0  0  0
 22 23  1  0  0  0  0
 22 21  1  0  0  0  0
 23 19  1  0  0  0  0
M  END
>  <MODEL>
2

>  <REMARK>
  Name = ZINC45467754
                            x       y       z     vdW  Elec       q    Type
                         _______ _______ _______ _____ _____    ______ ____

>  <TORSDO>
F 10

>  <minimizedAffinity>
-6.3267528288667183

$$$$
ZINC45467754
 OpenBabel10211212573D

 23 23  0  0  1  0  0  0  0  0999 V2000
   50.9250   50.5380   19.7050 C   0  0  2  0  0  0  0  0  0  0  0  0
   50.4350   51.7320   18.8840 C   0  0  0  0  0  0  0  0  0  0  0  0
   52.2720   50.0960   19.1960 C   0  0  0  0  0  0  0  0  0  0  0  0
   52.9020   49.0530   19.7720 N   0  0  0  0  0  0  0  0  0  0  0  0
   53.7700   48.7690   19.4450 H   0  0  0  0  0  0  0  0  0  0  0  0
   52.4880   48.5870   20.5160 H   0  0  0  0  0  0  0  0  0  0  0  0
   52.7910   50.6790   18.2670 O   0  0  0  0  0  0  0  0  0  0  0  0
   49.9670   49.4310   19.5790 N   0  0  0  0  0  0  0  0  0  0  0  0
   50.4650   48.5780   19.3710 H   0  0  0  0  0  0  0  0  0  0  0  0
   49.4630   49.3220   20.4470 H   0  0  0  0  0  0  0  0  0  0  0  0
   49.0210   49.7230   18.4940 C   0  0  0  0  0  0  0  0  0  0  0  0
   46.6810   49.3320   17.7120 C   0  0  0  0  0  0  0  0  0  0  0  0
   47.7900   48.8250   18.6360 C   0  0  0  0  0  0  0  0  0  0  0  0
   51.0440   50.9440   21.1750 C   0  0  0  0  0  0  0  0  0  0  0  0
   50.7660   52.4430   21.3130 C   0  0  0  0  0  0  0  0  0  0  0  0
   51.8340   53.0790   22.2050 C   0  0  0  0  0  0  0  0  0  0  0  0
   51.7790   54.5010   22.0730 O   0  0  0  0  0  0  0  0  0  0  0  0
   51.8520   54.9630   20.7230 C   0  0  0  0  0  0  0  0  0  0  0  0
   50.9850   56.2140   20.5640 C   0  0  1  0  0  0  0  0  0  0  0  0
   49.4780   55.8430   20.5400 C   0  0  0  0  0  0  0  0  0  0  0  0
   48.8470   57.1440   21.0960 C   0  0  0  0  0  0  0  0  0  0  0  0
   49.7700   57.6150   22.0910 O   0  0  0  0  0  0  0  0  0  0  0  0
   51.0870   57.1150   21.8140 C   0  0  0  0  0  0  0  0  0  0  0  0
  1  2  1  6  0  0  0
  1 14  1  0  0  0  0
  3  1  1  0  0  0  0
  3  4  1  0  0  0  0
  4  6  1  0  0  0  0
  5  4  1  0  0  0  0
  7  3  2  0  0  0  0
  8  1  1  0  0  0  0
  8 10  1  0  0  0  0
  9  8  1  0  0  0  0
 11 13  1  0  0  0  0
 11  8  1  0  0  0  0
 12 13  1  0  0  0  0
 14 15  1  0  0  0  0
 15 16  1  0  0  0  0
 17 16  1  0  0  0  0
 18 17  1  0  0  0  0
 19 18  1  1  0  0  0
 19 23  1  0  0  0  0
 20 19  1  0  0  0  0
 20 21  1  0  0  0  0
 21 22  1  0  0  0  0
 23 22  1  0  0  0  0
M  END
>  <MODEL>
3

>  <REMARK>
  Name = ZINC45467754
                            x       y       z     vdW  Elec       q    Type
                         _______ _______ _______ _____ _____    ______ ____

>  <TORSDO>
F 10

>  <minimizedAffinity>
-6.3120761249158432

$$$$
ZINC45467754
 OpenBabel10211212573D

 23 23  0  0  1  0  0  0  0  0999 V2000
   51.1580   50.3860   20.5630 C   0  0  2  0  0  0  0  0  0  0  0  0
   50.4260   49.0710   20.8360 C   0  0  0  0  0  0  0  0  0  0  0  0
   52.5060   50.0950   19.9570 C   0  0  0  0  0  0  0  0  0  0  0  0
   52.9450   48.8240   19.8660 N   0  0  0  0  0  0  0  0  0  0  0  0
   53.8130   48.6370   19.4760 H   0  0  0  0  0  0  0  0  0  0  0  0
   52.3920   48.0960   20.1920 H   0  0  0  0  0  0  0  0  0  0  0  0
   53.1970   51.0060   19.5510 O   0  0  0  0  0  0  0  0  0  0  0  0
   51.3360   51.1170   21.8250 N   0  0  0  0  0  0  0  0  0  0  0  0
   50.9330   50.5850   22.5810 H   0  0  0  0  0  0  0  0  0  0  0  0
   52.3210   51.2540   21.9990 H   0  0  0  0  0  0  0  0  0  0  0  0
   50.6690   52.4230   21.7330 C   0  0  0  0  0  0  0  0  0  0  0  0
   51.3160   54.8280   21.5380 C   0  0  0  0  0  0  0  0  0  0  0  0
   51.6040   53.5120   22.2630 C   0  0  0  0  0  0  0  0  0  0  0  0
   50.3350   51.2360   19.5930 C   0  0  0  0  0  0  0  0  0  0  0  0
   49.7070   50.3320   18.5300 C   0  0  0  0  0  0  0  0  0  0  0  0
   48.7840   51.1630   17.6360 C   0  0  0  0  0  0  0  0  0  0  0  0
   47.6170   50.4010   17.3190 O   0  0  0  0  0  0  0  0  0  0  0  0
   47.8950   49.1360   16.7150 C   0  0  0  0  0  0  0  0  0  0  0  0
   46.7870   48.1450   17.0740 C   0  0  1  0  0  0  0  0  0  0  0  0
   46.4400   48.2260   18.5860 C   0  0  0  0  0  0  0  0  0  0  0  0
   44.9580   47.7730   18.5720 C   0  0  0  0  0  0  0  0  0  0  0  0
   44.4080   48.3230   17.3640 O   0  0  0  0  0  0  0  0  0  0  0  0
   45.4540   48.5440   16.4040 C   0  0  0  0  0  0  0  0  0  0  0  0
  1 14  1  6  0  0  0
  1  2  1  0  0  0  0
  1  8  1  0  0  0  0
  3  1  1  0  0  0  0
  4  3  1  0  0  0  0
  4  6  1  0  0  0  0
  5  4  1  0  0  0  0
  7  3  2  0  0  0  0
  8 10  1  0  0  0  0
  8  9  1  0  0  0  0
 11  8  1  0  0  0  0
 11 13  1  0  0  0  0
 12 13  1  0  0  0  0
 15 14  1  0  0  0  0
 16 15  1  0  0  0  0
 17 16  1  0  0  0  0
 18 17  1  0  0  0  0
 19 18  1  1  0  0  0
 19 20  1  0  0  0  0
 21 20  1  0  0  0  0
 22 21  1  0  0  0  0
 23 19  1  0  0  0  0
 23 22  1  0  0  0  0
M  END
>  <MODEL>
4

>  <REMARK>
  Name = ZINC45467754
                            x       y       z     vdW  Elec       q    Type
                         _______ _______ _______ _____ _____    ______ ____

>  <TORSDO>
F 10

>  <minimizedAffinity>
-6.2990181767988371

$$$$
ZINC45467754
 OpenBabel10211212573D

 23 23  0  0  1  0  0  0  0  0999 V2000
   50.9980   50.5680   19.7800 C   0  0  2  0  0  0  0  0  0  0  0  0
   50.4630   51.6770   18.8730 C   0  0  0  0  0  0  0  0  0  0  0  0
   52.3080   50.0600   19.2350 C   0  0  0  0  0  0  0  0  0  0  0  0
   52.9200   49.0110   19.8180 N   0  0  0  0  0  0  0  0  0  0  0  0
   53.7630   48.6840   19.4680 H   0  0  0  0  0  0  0  0  0  0  0  0
   52.5170   48.5820   20.5900 H   0  0  0  0  0  0  0  0  0  0  0  0
   52.8120   50.5960   18.2710 O   0  0  0  0  0  0  0  0  0  0  0  0
   50.0280   49.4650   19.8270 N   0  0  0  0  0  0  0  0  0  0  0  0
   50.5070   48.6050   20.0500 H   0  0  0  0  0  0  0  0  0  0  0  0
   49.3360   49.6560   20.5370 H   0  0  0  0  0  0  0  0  0  0  0  0
   49.3690   49.3360   18.5210 C   0  0  0  0  0  0  0  0  0  0  0  0
   46.9990   49.5510   17.7590 C   0  0  0  0  0  0  0  0  0  0  0  0
   47.9410   48.8210   18.7190 C   0  0  0  0  0  0  0  0  0  0  0  0
   51.2120   51.1190   21.1910 C   0  0  0  0  0  0  0  0  0  0  0  0
   50.7220   52.5680   21.2500 C   0  0  0  0  0  0  0  0  0  0  0  0
   51.5710   53.3510   22.2550 C   0  0  0  0  0  0  0  0  0  0  0  0
   52.0310   54.5600   21.6480 O   0  0  0  0  0  0  0  0  0  0  0  0
   51.0070   55.5360   21.4450 C   0  0  0  0  0  0  0  0  0  0  0  0
   51.6000   56.7610   20.7460 C   0  0  1  0  0  0  0  0  0  0  0  0
   51.8360   57.9150   21.7570 C   0  0  0  0  0  0  0  0  0  0  0  0
   53.0120   58.6620   21.0800 C   0  0  0  0  0  0  0  0  0  0  0  0
   53.8250   57.6330   20.4940 O   0  0  0  0  0  0  0  0  0  0  0  0
   53.0280   56.4650   20.2370 C   0  0  0  0  0  0  0  0  0  0  0  0
  1  2  1  6  0  0  0
  1  8  1  0  0  0  0
  1 14  1  0  0  0  0
  3  1  1  0  0  0  0
  3  4  1  0  0  0  0
  4  6  1  0  0  0  0
  5  4  1  0  0  0  0
  7  3  2  0  0  0  0
  8  9  1  0  0  0  0
  8 10  1  0  0  0  0
 11 13  1  0  0  0  0
 11  8  1  0  0  0  0
 12 13  1  0  0  0  0
 14 15  1  0  0  0  0
 15 16  1  0  0  0  0
 17 16  1  0  0  0  0
 18 17  1  0  0  0  0
 19 18  1  1  0  0  0
 19 20  1  0  0  0  0
 21 20  1  0  0  0  0
 22 21  1  0  0  0  0
 23 22  1  0  0  0  0
 23 19  1  0  0  0  0
M  END
>  <MODEL>
5

>  <REMARK>
  Name = ZINC45467754
                            x       y       z     vdW  Elec       q    Type
                         _______ _______ _______ _____ _____    ______ ____

>  <TORSDO>
F 10

>  <minimizedAffinity>
-6.2448896879802049

$$$$
ZINC45467754
 OpenBabel10211212573D

 23 23  0  0  1  0  0  0  0  0999 V2000
   51.2850   50.5210   18.8750 C   0  0  2  0  0  0  0  0  0  0  0  0
   52.2440   51.0010   17.7840 C   0  0  0  0  0  0  0  0  0  0  0  0
   52.0750   50.0220   20.0560 C   0  0  0  0  0  0  0  0  0  0  0  0
   52.7870   48.8810   19.9580 N   0  0  0  0  0  0  0  0  0  0  0  0
   53.2950   48.5600   20.7190 H   0  0  0  0  0  0  0  0  0  0  0  0
   52.7900   48.3810   19.1260 H   0  0  0  0  0  0  0  0  0  0  0  0
   52.0710   50.6460   21.0960 O   0  0  0  0  0  0  0  0  0  0  0  0
   50.4500   49.4320   18.3490 N   0  0  0  0  0  0  0  0  0  0  0  0
   50.2180   49.6220   17.3860 H   0  0  0  0  0  0  0  0  0  0  0  0
   50.9590   48.5610   18.4050 H   0  0  0  0  0  0  0  0  0  0  0  0
   49.2180   49.3320   19.1410 C   0  0  0  0  0  0  0  0  0  0  0  0
   46.9280   48.4030   18.7750 C   0  0  0  0  0  0  0  0  0  0  0  0
   48.0080   49.3240   18.2040 C   0  0  0  0  0  0  0  0  0  0  0  0
   50.3900   51.6820   19.3140 C   0  0  0  0  0  0  0  0  0  0  0  0
   50.4400   52.7900   18.2610 C   0  0  0  0  0  0  0  0  0  0  0  0
   49.0350   53.3580   18.0510 C   0  0  0  0  0  0  0  0  0  0  0  0
   49.0410   54.7600   18.3280 O   0  0  0  0  0  0  0  0  0  0  0  0
   48.5330   55.0990   19.6200 C   0  0  0  0  0  0  0  0  0  0  0  0
   49.0180   56.4970   20.0080 C   0  0  1  0  0  0  0  0  0  0  0  0
   47.8600   57.3340   20.6170 C   0  0  0  0  0  0  0  0  0  0  0  0
   48.6490   58.2970   21.5400 C   0  0  0  0  0  0  0  0  0  0  0  0
   49.7310   57.5120   22.0650 O   0  0  0  0  0  0  0  0  0  0  0  0
   50.0270   56.4250   21.1750 C   0  0  0  0  0  0  0  0  0  0  0  0
  1  2  1  6  0  0  0
  1 14  1  0  0  0  0
  1  3  1  0  0  0  0
  3  7  2  0  0  0  0
  4  3  1  0  0  0  0
  4  5  1  0  0  0  0
  6  4  1  0  0  0  0
  8 10  1  0  0  0  0
  8  1  1  0  0  0  0
  8 11  1  0  0  0  0
  9  8  1  0  0  0  0
 13 12  1  0  0  0  0
 13 11  1  0  0  0  0
 15 14  1  0  0  0  0
 16 15  1  0  0  0  0
 16 17  1  0  0  0  0
 17 18  1  0  0  0  0
 19 18  1  1  0  0  0
 19 20  1  0  0  0  0
 19 23  1  0  0  0  0
 20 21  1  0  0  0  0
 21 22  1  0  0  0  0
 23 22  1  0  0  0  0
M  END
>  <MODEL>
6

>  <REMARK>
  Name = ZINC45467754
                            x       y       z     vdW  Elec       q    Type
                         _______ _______ _______ _____ _____    ______ ____

>  <TORSDO>
F 10

>  <minimizedAffinity>
-6.1634977692839348

$$$$
ZINC45467754
 OpenBabel10211212573D

 23 23  0  0  1  0  0  0  0  0999 V2000
   51.2680   52.0460   20.0840 C   0  0  2  0  0  0  0  0  0  0  0  0
   52.3660   52.8410   19.3750 C   0  0  0  0  0  0  0  0  0  0  0  0
   51.8510   50.7770   20.6490 C   0  0  0  0  0  0  0  0  0  0  0  0
   51.0920   49.9700   21.4170 N   0  0  0  0  0  0  0  0  0  0  0  0
   51.4680   49.1540   21.7810 H   0  0  0  0  0  0  0  0  0  0  0  0
   50.1700   50.2060   21.6060 H   0  0  0  0  0  0  0  0  0  0  0  0
   53.0040   50.4820   20.4140 O   0  0  0  0  0  0  0  0  0  0  0  0
   50.2080   51.7110   19.1220 N   0  0  0  0  0  0  0  0  0  0  0  0
   50.4900   50.9100   18.5780 H   0  0  0  0  0  0  0  0  0  0  0  0
   49.3570   51.4960   19.6210 H   0  0  0  0  0  0  0  0  0  0  0  0
   49.9780   52.8550   18.2290 C   0  0  0  0  0  0  0  0  0  0  0  0
   48.7560   51.5920   16.4540 C   0  0  0  0  0  0  0  0  0  0  0  0
   48.6340   52.6840   17.5190 C   0  0  0  0  0  0  0  0  0  0  0  0
   50.6800   52.8870   21.2180 C   0  0  0  0  0  0  0  0  0  0  0  0
   51.8110   53.3900   22.1180 C   0  0  0  0  0  0  0  0  0  0  0  0
   51.4630   54.7860   22.6400 C   0  0  0  0  0  0  0  0  0  0  0  0
   52.3310   55.7490   22.0400 O   0  0  0  0  0  0  0  0  0  0  0  0
   51.6920   56.9840   21.7110 C   0  0  0  0  0  0  0  0  0  0  0  0
   50.2090   56.7310   21.4290 C   0  0  1  0  0  0  0  0  0  0  0  0
   49.3460   57.9380   21.8870 C   0  0  0  0  0  0  0  0  0  0  0  0
   48.1430   57.8230   20.9180 C   0  0  0  0  0  0  0  0  0  0  0  0
   48.7050   57.3810   19.6720 O   0  0  0  0  0  0  0  0  0  0  0  0
   49.9400   56.6870   19.9090 C   0  0  0  0  0  0  0  0  0  0  0  0
  1  8  1  6  0  0  0
  1  3  1  0  0  0  0
  1 14  1  0  0  0  0
  2  1  1  0  0  0  0
  3  4  1  0  0  0  0
  4  6  1  0  0  0  0
  4  5  1  0  0  0  0
  7  3  2  0  0  0  0
  8 10  1  0  0  0  0
  9  8  1  0  0  0  0
 11  8  1  0  0  0  0
 12 13  1  0  0  0  0
 13 11  1  0  0  0  0
 14 15  1  0  0  0  0
 15 16  1  0  0  0  0
 17 16  1  0  0  0  0
 18 17  1  0  0  0  0
 19 18  1  6  0  0  0
 19 20  1  0  0  0  0
 21 20  1  0  0  0  0
 22 23  1  0  0  0  0
 22 21  1  0  0  0  0
 23 19  1  0  0  0  0
M  END
>  <MODEL>
7

>  <REMARK>
  Name = ZINC45467754
                            x       y       z     vdW  Elec       q    Type
                         _______ _______ _______ _____ _____    ______ ____

>  <TORSDO>
F 10

>  <minimizedAffinity>
-6.1590563327918089

$$$$
ZINC45467754
 OpenBabel10211212573D

 23 23  0  0  1  0  0  0  0  0999 V2000
   52.1600   50.9870   19.6410 C   0  0  2  0  0  0  0  0  0  0  0  0
   52.8630   49.6300   19.7040 C   0  0  0  0  0  0  0  0  0  0  0  0
   52.3910   51.6120   18.2910 C   0  0  0  0  0  0  0  0  0  0  0  0
   52.1420   50.9070   17.1700 N   0  0  0  0  0  0  0  0  0  0  0  0
   52.2910   51.3100   16.3000 H   0  0  0  0  0  0  0  0  0  0  0  0
   51.8140   49.9950   17.2320 H   0  0  0  0  0  0  0  0  0  0  0  0
   52.8010   52.7510   18.2110 O   0  0  0  0  0  0  0  0  0  0  0  0
   52.7010   51.8670   20.6860 N   0  0  0  0  0  0  0  0  0  0  0  0
   53.3150   51.3380   21.2870 H   0  0  0  0  0  0  0  0  0  0  0  0
   53.2190   52.6200   20.2570 H   0  0  0  0  0  0  0  0  0  0  0  0
   51.5970   52.4220   21.4800 C   0  0  0  0  0  0  0  0  0  0  0  0
   50.3970   54.5360   20.9040 C   0  0  0  0  0  0  0  0  0  0  0  0
   51.6870   53.9490   21.4820 C   0  0  0  0  0  0  0  0  0  0  0  0
   50.6590   50.7950   19.8650 C   0  0  0  0  0  0  0  0  0  0  0  0
   50.3340   49.2990   19.8780 C   0  0  0  0  0  0  0  0  0  0  0  0
   49.1390   49.0290   18.9610 C   0  0  0  0  0  0  0  0  0  0  0  0
   49.3790   49.6190   17.6810 O   0  0  0  0  0  0  0  0  0  0  0  0
   48.1980   50.0790   17.0220 C   0  0  0  0  0  0  0  0  0  0  0  0
   47.2510   48.8990   16.7910 C   0  0  1  0  0  0  0  0  0  0  0  0
   45.8140   49.2410   17.2690 C   0  0  0  0  0  0  0  0  0  0  0  0
   44.9710   48.3310   16.3410 C   0  0  0  0  0  0  0  0  0  0  0  0
   45.6590   48.3400   15.0800 O   0  0  0  0  0  0  0  0  0  0  0  0
   47.0480   48.6460   15.2810 C   0  0  0  0  0  0  0  0  0  0  0  0
  1  3  1  6  0  0  0
  1  2  1  0  0  0  0
  1 14  1  0  0  0  0
  1  8  1  0  0  0  0
  4  6  1  0  0  0  0
  4  3  1  0  0  0  0
  5  4  1  0  0  0  0
  7  3  2  0  0  0  0
  8  9  1  0  0  0  0
  8 11  1  0  0  0  0
 10  8  1  0  0  0  0
 11 13  1  0  0  0  0
 12 13  1  0  0  0  0
 14 15  1  0  0  0  0
 16 15  1  0  0  0  0
 17 16  1  0  0  0  0
 18 17  1  0  0  0  0
 19 18  1  6  0  0  0
 19 20  1  0  0  0  0
 21 20  1  0  0  0  0
 22 23  1  0  0  0  0
 22 21  1  0  0  0  0
 23 19  1  0  0  0  0
M  END
>  <MODEL>
8

>  <REMARK>
  Name = ZINC45467754
                            x       y       z     vdW  Elec       q    Type
                         _______ _______ _______ _____ _____    ______ ____

>  <TORSDO>
F 10

>  <minimizedAffinity>
-6.1078918720340143

$$$$
ZINC45467754
 OpenBabel10211212573D

 23 23  0  0  1  0  0  0  0  0999 V2000
   49.4150   49.7310   15.5000 C   0  0  2  0  0  0  0  0  0  0  0  0
   48.1440   49.9890   14.6900 C   0  0  0  0  0  0  0  0  0  0  0  0
   50.6130   49.7870   14.5890 C   0  0  0  0  0  0  0  0  0  0  0  0
   51.8410   50.0020   15.1010 N   0  0  0  0  0  0  0  0  0  0  0  0
   52.6120   50.0380   14.5130 H   0  0  0  0  0  0  0  0  0  0  0  0
   51.9540   50.1200   16.0570 H   0  0  0  0  0  0  0  0  0  0  0  0
   50.4730   49.6400   13.3930 O   0  0  0  0  0  0  0  0  0  0  0  0
   49.3370   48.4020   16.1230 N   0  0  0  0  0  0  0  0  0  0  0  0
   49.8420   47.7360   15.5590 H   0  0  0  0  0  0  0  0  0  0  0  0
   49.7460   48.4390   17.0460 H   0  0  0  0  0  0  0  0  0  0  0  0
   47.9300   47.9920   16.2270 C   0  0  0  0  0  0  0  0  0  0  0  0
   46.4330   48.9970   17.9560 C   0  0  0  0  0  0  0  0  0  0  0  0
   47.5190   47.9500   17.7000 C   0  0  0  0  0  0  0  0  0  0  0  0
   49.5520   50.7970   16.5890 C   0  0  0  0  0  0  0  0  0  0  0  0
   48.4330   51.8290   16.4340 C   0  0  0  0  0  0  0  0  0  0  0  0
   48.5910   52.9150   17.5020 C   0  0  0  0  0  0  0  0  0  0  0  0
   49.9630   53.0020   17.8920 O   0  0  0  0  0  0  0  0  0  0  0  0
   50.1600   53.1070   19.3030 C   0  0  0  0  0  0  0  0  0  0  0  0
   51.3450   52.2340   19.7190 C   0  0  1  0  0  0  0  0  0  0  0  0
   50.8870   50.7780   20.0030 C   0  0  0  0  0  0  0  0  0  0  0  0
   52.1840   49.9940   19.6780 C   0  0  0  0  0  0  0  0  0  0  0  0
   52.7710   50.6840   18.5630 O   0  0  0  0  0  0  0  0  0  0  0  0
   52.3320   52.0510   18.5450 C   0  0  0  0  0  0  0  0  0  0  0  0
  1  3  1  6  0  0  0
  1  8  1  0  0  0  0
  1 14  1  0  0  0  0
  2  1  1  0  0  0  0
  3  4  1  0  0  0  0
  4  6  1  0  0  0  0
  5  4  1  0  0  0  0
  7  3  2  0  0  0  0
  8 11  1  0  0  0  0
  8 10  1  0  0  0  0
  9  8  1  0  0  0  0
 11 13  1  0  0  0  0
 13 12  1  0  0  0  0
 15 14  1  0  0  0  0
 15 16  1  0  0  0  0
 16 17  1  0  0  0  0
 17 18  1  0  0  0  0
 19 18  1  6  0  0  0
 19 20  1  0  0  0  0
 21 20  1  0  0  0  0
 22 21  1  0  0  0  0
 23 22  1  0  0  0  0
 23 19  1  0  0  0  0
M  END
>  <MODEL>
9

>  <REMARK>
  Name = ZINC45467754
                            x       y       z     vdW  Elec       q    Type
                         _______ _______ _______ _____ _____    ______ ____

>  <TORSDO>
F 10

>  <minimizedAffinity>
-5.9435811270470751

$$$$
ZINC43323823
 OpenBabel10211212583D

 21 21  0  0  1  0  0  0  0  0999 V2000
   50.1380   50.0870   18.6110 C   0  0  1  0  0  0  0  0  0  0  0  0
   50.4960   49.2130   19.8160 C   0  0  0  0  0  0  0  0  0  0  0  0
   50.8910   50.1050   20.9960 C   0  0  0  0  0  0  0  0  0  0  0  0
   52.1220   50.9330   20.6150 C   0  0  0  0  0  0  0  0  0  0  0  0
   51.8350   51.6660   19.3750 N   0  0  0  0  0  0  0  0  0  0  0  0
   52.0030   53.0020   19.3120 C   0  0  0  0  0  0  0  0  0  0  0  0
   51.7620   53.5970   18.2800 O   0  0  0  0  0  0  0  0  0  0  0  0
   51.3610   50.9160   18.2040 C   0  0  0  0  0  0  0  0  0  0  0  0
   49.7290   49.2320   17.4890 N   0  0  0  0  0  0  0  0  0  0  0  0
   49.4030   49.8090   16.7280 H   0  0  0  0  0  0  0  0  0  0  0  0
   50.5170   48.6820   17.1800 H   0  0  0  0  0  0  0  0  0  0  0  0
   48.6480   48.3370   17.9230 C   0  0  2  0  0  0  0  0  0  0  0  0
   48.4540   47.2310   16.8840 C   0  0  0  0  0  0  0  0  0  0  0  0
   47.3520   49.1360   18.0670 C   0  0  0  0  0  0  0  0  0  0  0  0
   44.9510   48.5650   17.6760 C   0  0  0  0  0  0  0  0  0  0  0  0
   46.2120   48.1940   18.4590 C   0  0  0  0  0  0  0  0  0  0  0  0
   52.4380   53.6770   20.3920 O   0  0  0  0  0  0  0  0  0  0  0  0
   51.4680   54.4370   21.1160 C   0  0  0  0  0  0  0  0  0  0  0  0
   51.5740   54.1100   22.6070 C   0  0  0  0  0  0  0  0  0  0  0  0
   50.0660   54.0860   20.6140 C   0  0  0  0  0  0  0  0  0  0  0  0
   51.7270   55.9300   20.9020 C   0  0  0  0  0  0  0  0  0  0  0  0
  1  9  1  6  0  0  0
  1  2  1  0  0  0  0
  2  3  1  0  0  0  0
  4  3  1  0  0  0  0
  5  4  1  0  0  0  0
  6  5  1  0  0  0  0
  6 17  1  0  0  0  0
  7  6  2  0  0  0  0
  8  1  1  0  0  0  0
  8  5  1  0  0  0  0
  9 12  1  0  0  0  0
 10  9  1  0  0  0  0
 11  9  1  0  0  0  0
 12 13  1  6  0  0  0
 12 14  1  0  0  0  0
 14 16  1  0  0  0  0
 15 16  1  0  0  0  0
 17 18  1  0  0  0  0
 18 19  1  0  0  0  0
 20 18  1  0  0  0  0
 21 18  1  0  0  0  0
M  END
>  <MODEL>
1

>  <REMARK>
  Name = ZINC43323823
                            x       y       z     vdW  Elec       q    Type
                         _______ _______ _______ _____ _____    ______ ____

>  <TORSDO>
F 6

>  <minimizedAffinity>
-7.1004334766373942

$$$$
ZINC43323823
 OpenBabel10211212583D

 21 21  0  0  1  0  0  0  0  0999 V2000
   49.9740   49.8510   18.8350 C   0  0  1  0  0  0  0  0  0  0  0  0
   50.3960   49.0480   20.0670 C   0  0  0  0  0  0  0  0  0  0  0  0
   50.8540   50.0060   21.1700 C   0  0  0  0  0  0  0  0  0  0  0  0
   52.0630   50.8050   20.6760 C   0  0  0  0  0  0  0  0  0  0  0  0
   51.7100   51.4660   19.4120 N   0  0  0  0  0  0  0  0  0  0  0  0
   51.8760   52.7950   19.2620 C   0  0  0  0  0  0  0  0  0  0  0  0
   51.5800   53.3300   18.2110 O   0  0  0  0  0  0  0  0  0  0  0  0
   51.1730   50.6510   18.3140 C   0  0  0  0  0  0  0  0  0  0  0  0
   49.5040   48.9340   17.7880 N   0  0  0  0  0  0  0  0  0  0  0  0
   50.2900   48.6230   17.2360 H   0  0  0  0  0  0  0  0  0  0  0  0
   49.0570   48.1370   18.2150 H   0  0  0  0  0  0  0  0  0  0  0  0
   48.5420   49.6290   16.9220 C   0  0  2  0  0  0  0  0  0  0  0  0
   47.1640   49.6250   17.5850 C   0  0  0  0  0  0  0  0  0  0  0  0
   48.4630   48.9150   15.5720 C   0  0  0  0  0  0  0  0  0  0  0  0
   50.5840   49.4690   14.3730 C   0  0  0  0  0  0  0  0  0  0  0  0
   49.0930   49.7940   14.4910 C   0  0  0  0  0  0  0  0  0  0  0  0
   52.3690   53.5310   20.2760 O   0  0  0  0  0  0  0  0  0  0  0  0
   51.4470   54.3640   20.9810 C   0  0  0  0  0  0  0  0  0  0  0  0
   51.5850   54.1180   22.4850 C   0  0  0  0  0  0  0  0  0  0  0  0
   50.0200   54.0350   20.5380 C   0  0  0  0  0  0  0  0  0  0  0  0
   51.7500   55.8330   20.6750 C   0  0  0  0  0  0  0  0  0  0  0  0
  1  9  1  6  0  0  0
  1  2  1  0  0  0  0
  2  3  1  0  0  0  0
  4  3  1  0  0  0  0
  5  4  1  0  0  0  0
  6  5  1  0  0  0  0
  6 17  1  0  0  0  0
  7  6  2  0  0  0  0
  8  1  1  0  0  0  0
  8  5  1  0  0  0  0
  9 11  1  0  0  0  0
 10  9  1  0  0  0  0
 12 14  1  1  0  0  0
 12 13  1  0  0  0  0
 12  9  1  0  0  0  0
 15 16  1  0  0  0  0
 16 14  1  0  0  0  0
 17 18  1  0  0  0  0
 18 19  1  0  0  0  0
 20 18  1  0  0  0  0
 21 18  1  0  0  0  0
M  END
>  <MODEL>
2

>  <REMARK>
  Name = ZINC43323823
                            x       y       z     vdW  Elec       q    Type
                         _______ _______ _______ _____ _____    ______ ____

>  <TORSDO>
F 6

>  <minimizedAffinity>
-6.5931441149859946

$$$$
ZINC43323823
 OpenBabel10211212583D

 21 21  0  0  1  0  0  0  0  0999 V2000
   50.2170   51.5220   17.6620 C   0  0  1  0  0  0  0  0  0  0  0  0
   48.7640   51.9990   17.5950 C   0  0  0  0  0  0  0  0  0  0  0  0
   48.7300   53.5280   17.5340 C   0  0  0  0  0  0  0  0  0  0  0  0
   49.3700   54.1000   18.8020 C   0  0  0  0  0  0  0  0  0  0  0  0
   50.7170   53.5330   18.9510 N   0  0  0  0  0  0  0  0  0  0  0  0
   51.7880   54.3360   19.1010 C   0  0  0  0  0  0  0  0  0  0  0  0
   52.8970   53.8540   19.2230 O   0  0  0  0  0  0  0  0  0  0  0  0
   50.8750   52.0720   18.9310 C   0  0  0  0  0  0  0  0  0  0  0  0
   50.2500   50.0530   17.6880 N   0  0  0  0  0  0  0  0  0  0  0  0
   50.0000   49.6950   16.7780 H   0  0  0  0  0  0  0  0  0  0  0  0
   51.1790   49.7420   17.9280 H   0  0  0  0  0  0  0  0  0  0  0  0
   49.2950   49.5590   18.6890 C   0  0  2  0  0  0  0  0  0  0  0  0
   50.0590   48.9440   19.8630 C   0  0  0  0  0  0  0  0  0  0  0  0
   48.3940   48.5000   18.0540 C   0  0  0  0  0  0  0  0  0  0  0  0
   46.1270   49.3850   17.4880 C   0  0  0  0  0  0  0  0  0  0  0  0
   46.9610   48.6790   18.5590 C   0  0  0  0  0  0  0  0  0  0  0  0
   51.6300   55.6730   19.1180 O   0  0  0  0  0  0  0  0  0  0  0  0
   51.7390   56.3240   20.3850 C   0  0  0  0  0  0  0  0  0  0  0  0
   50.5950   57.3270   20.5430 C   0  0  0  0  0  0  0  0  0  0  0  0
   53.0780   57.0600   20.4660 C   0  0  0  0  0  0  0  0  0  0  0  0
   51.6630   55.2820   21.5020 C   0  0  0  0  0  0  0  0  0  0  0  0
  1  9  1  1  0  0  0
  1  8  1  0  0  0  0
  2  1  1  0  0  0  0
  3  2  1  0  0  0  0
  3  4  1  0  0  0  0
  4  5  1  0  0  0  0
  5  6  1  0  0  0  0
  6 17  1  0  0  0  0
  6  7  2  0  0  0  0
  8  5  1  0  0  0  0
  9 11  1  0  0  0  0
 10  9  1  0  0  0  0
 12  9  1  6  0  0  0
 12 13  1  0  0  0  0
 14 16  1  0  0  0  0
 14 12  1  0  0  0  0
 15 16  1  0  0  0  0
 17 18  1  0  0  0  0
 18 20  1  0  0  0  0
 18 19  1  0  0  0  0
 18 21  1  0  0  0  0
M  END
>  <MODEL>
3

>  <REMARK>
  Name = ZINC43323823
                            x       y       z     vdW  Elec       q    Type
                         _______ _______ _______ _____ _____    ______ ____

>  <TORSDO>
F 6

>  <minimizedAffinity>
-6.5418895425325667

$$$$
ZINC43323823
 OpenBabel10211212583D

 21 21  0  0  1  0  0  0  0  0999 V2000
   51.3040   54.3790   21.1390 C   0  0  1  0  0  0  0  0  0  0  0  0
   51.7240   53.2250   22.0520 C   0  0  0  0  0  0  0  0  0  0  0  0
   52.0040   51.9790   21.2070 C   0  0  0  0  0  0  0  0  0  0  0  0
   50.7270   51.5710   20.4670 C   0  0  0  0  0  0  0  0  0  0  0  0
   50.2360   52.7230   19.6980 N   0  0  0  0  0  0  0  0  0  0  0  0
   49.9900   52.6130   18.3780 C   0  0  0  0  0  0  0  0  0  0  0  0
   49.5840   53.5740   17.7540 O   0  0  0  0  0  0  0  0  0  0  0  0
   50.0190   53.9980   20.3970 C   0  0  0  0  0  0  0  0  0  0  0  0
   51.0660   55.5830   21.9470 N   0  0  0  0  0  0  0  0  0  0  0  0
   50.4200   55.3650   22.6910 H   0  0  0  0  0  0  0  0  0  0  0  0
   51.9380   55.9010   22.3410 H   0  0  0  0  0  0  0  0  0  0  0  0
   50.4980   56.6380   21.0980 C   0  0  2  0  0  0  0  0  0  0  0  0
   51.6290   57.3950   20.3990 C   0  0  0  0  0  0  0  0  0  0  0  0
   49.6910   57.6080   21.9630 C   0  0  0  0  0  0  0  0  0  0  0  0
   47.9300   56.9320   20.3240 C   0  0  0  0  0  0  0  0  0  0  0  0
   48.4590   58.0790   21.1880 C   0  0  0  0  0  0  0  0  0  0  0  0
   50.1930   51.4400   17.7510 O   0  0  0  0  0  0  0  0  0  0  0  0
   49.0380   50.7590   17.2580 C   0  0  0  0  0  0  0  0  0  0  0  0
   49.3190   50.2270   15.8520 C   0  0  0  0  0  0  0  0  0  0  0  0
   47.8550   51.7290   17.2110 C   0  0  0  0  0  0  0  0  0  0  0  0
   48.7000   49.5900   18.1870 C   0  0  0  0  0  0  0  0  0  0  0  0
  1  9  1  1  0  0  0
  1  2  1  0  0  0  0
  3  2  1  0  0  0  0
  4  3  1  0  0  0  0
  5  8  1  0  0  0  0
  5  4  1  0  0  0  0
  6  5  1  0  0  0  0
  7  6  2  0  0  0  0
  8  1  1  0  0  0  0
  9 11  1  0  0  0  0
  9 10  1  0  0  0  0
 12 13  1  1  0  0  0
 12  9  1  0  0  0  0
 12 14  1  0  0  0  0
 15 16  1  0  0  0  0
 16 14  1  0  0  0  0
 17  6  1  0  0  0  0
 18 17  1  0  0  0  0
 18 21  1  0  0  0  0
 19 18  1  0  0  0  0
 20 18  1  0  0  0  0
M  END
>  <MODEL>
4

>  <REMARK>
  Name = ZINC43323823
                            x       y       z     vdW  Elec       q    Type
                         _______ _______ _______ _____ _____    ______ ____

>  <TORSDO>
F 6

>  <minimizedAffinity>
-6.4129923317156381

$$$$
ZINC43323823
 OpenBabel10211212583D

 21 21  0  0  1  0  0  0  0  0999 V2000
   49.4630   52.9350   18.4020 C   0  0  1  0  0  0  0  0  0  0  0  0
   48.7520   53.7310   17.3060 C   0  0  0  0  0  0  0  0  0  0  0  0
   47.5090   52.9670   16.8420 C   0  0  0  0  0  0  0  0  0  0  0  0
   47.9340   51.6150   16.2610 C   0  0  0  0  0  0  0  0  0  0  0  0
   48.7420   50.9020   17.2600 N   0  0  0  0  0  0  0  0  0  0  0  0
   48.4190   49.6500   17.6370 C   0  0  0  0  0  0  0  0  0  0  0  0
   49.0960   49.0710   18.4650 O   0  0  0  0  0  0  0  0  0  0  0  0
   49.9090   51.5810   17.8390 C   0  0  0  0  0  0  0  0  0  0  0  0
   50.6380   53.6830   18.8690 N   0  0  0  0  0  0  0  0  0  0  0  0
   50.9580   53.2940   19.7440 H   0  0  0  0  0  0  0  0  0  0  0  0
   51.3740   53.6170   18.1820 H   0  0  0  0  0  0  0  0  0  0  0  0
   50.2760   55.0930   19.0640 C   0  0  2  0  0  0  0  0  0  0  0  0
   51.5470   55.9390   19.1550 C   0  0  0  0  0  0  0  0  0  0  0  0
   49.4710   55.2390   20.3560 C   0  0  0  0  0  0  0  0  0  0  0  0
   48.6440   57.4630   21.1410 C   0  0  0  0  0  0  0  0  0  0  0  0
   48.3930   56.3080   20.1680 C   0  0  0  0  0  0  0  0  0  0  0  0
   47.3470   49.0390   17.0990 O   0  0  0  0  0  0  0  0  0  0  0  0
   47.5970   48.0660   16.0830 C   0  0  0  0  0  0  0  0  0  0  0  0
   47.3140   46.6680   16.6360 C   0  0  0  0  0  0  0  0  0  0  0  0
   49.0590   48.1550   15.6400 C   0  0  0  0  0  0  0  0  0  0  0  0
   46.6840   48.3350   14.8840 C   0  0  0  0  0  0  0  0  0  0  0  0
  1  9  1  6  0  0  0
  2  1  1  0  0  0  0
  3  2  1  0  0  0  0
  4  3  1  0  0  0  0
  4  5  1  0  0  0  0
  5  6  1  0  0  0  0
  5  8  1  0  0  0  0
  6  7  2  0  0  0  0
  8  1  1  0  0  0  0
  9 10  1  0  0  0  0
 11  9  1  0  0  0  0
 12  9  1  1  0  0  0
 12 13  1  0  0  0  0
 12 14  1  0  0  0  0
 16 14  1  0  0  0  0
 16 15  1  0  0  0  0
 17  6  1  0  0  0  0
 18 19  1  0  0  0  0
 18 17  1  0  0  0  0
 20 18  1  0  0  0  0
 21 18  1  0  0  0  0
M  END
>  <MODEL>
5

>  <REMARK>
  Name = ZINC43323823
                            x       y       z     vdW  Elec       q    Type
                         _______ _______ _______ _____ _____    ______ ____

>  <TORSDO>
F 6

>  <minimizedAffinity>
-6.2961731673020918

$$$$
ZINC43323823
 OpenBabel10211212583D

 21 21  0  0  1  0  0  0  0  0999 V2000
   49.3650   53.0420   18.2600 C   0  0  1  0  0  0  0  0  0  0  0  0
   48.5660   53.7620   17.1710 C   0  0  0  0  0  0  0  0  0  0  0  0
   47.4780   52.8290   16.6340 C   0  0  0  0  0  0  0  0  0  0  0  0
   48.1320   51.5900   16.0160 C   0  0  0  0  0  0  0  0  0  0  0  0
   49.0160   50.9730   17.0140 N   0  0  0  0  0  0  0  0  0  0  0  0
   48.8900   49.6700   17.3310 C   0  0  0  0  0  0  0  0  0  0  0  0
   49.6280   49.1710   18.1580 O   0  0  0  0  0  0  0  0  0  0  0  0
   50.0410   51.8050   17.6600 C   0  0  0  0  0  0  0  0  0  0  0  0
   50.3900   53.9490   18.7970 N   0  0  0  0  0  0  0  0  0  0  0  0
   51.2960   53.5100   18.7270 H   0  0  0  0  0  0  0  0  0  0  0  0
   50.3900   54.8070   18.2680 H   0  0  0  0  0  0  0  0  0  0  0  0
   50.0950   54.2410   20.2060 C   0  0  2  0  0  0  0  0  0  0  0  0
   49.1520   55.4420   20.2910 C   0  0  0  0  0  0  0  0  0  0  0  0
   51.3970   54.5600   20.9430 C   0  0  0  0  0  0  0  0  0  0  0  0
   50.8880   52.2920   21.8600 C   0  0  0  0  0  0  0  0  0  0  0  0
   51.5280   53.6480   22.1650 C   0  0  0  0  0  0  0  0  0  0  0  0
   47.9470   48.9190   16.7310 O   0  0  0  0  0  0  0  0  0  0  0  0
   46.8460   48.4950   17.5360 C   0  0  0  0  0  0  0  0  0  0  0  0
   46.4300   47.0800   17.1290 C   0  0  0  0  0  0  0  0  0  0  0  0
   45.6690   49.4520   17.3350 C   0  0  0  0  0  0  0  0  0  0  0  0
   47.2590   48.5000   19.0100 C   0  0  0  0  0  0  0  0  0  0  0  0
  1  9  1  6  0  0  0
  2  1  1  0  0  0  0
  3  2  1  0  0  0  0
  4  3  1  0  0  0  0
  4  5  1  0  0  0  0
  5  6  1  0  0  0  0
  5  8  1  0  0  0  0
  6  7  2  0  0  0  0
  8  1  1  0  0  0  0
 10  9  1  0  0  0  0
 11  9  1  0  0  0  0
 12  9  1  6  0  0  0
 12 13  1  0  0  0  0
 12 14  1  0  0  0  0
 14 16  1  0  0  0  0
 15 16  1  0  0  0  0
 17  6  1  0  0  0  0
 17 18  1  0  0  0  0
 18 21  1  0  0  0  0
 19 18  1  0  0  0  0
 20 18  1  0  0  0  0
M  END
>  <MODEL>
6

>  <REMARK>
  Name = ZINC43323823
                            x       y       z     vdW  Elec       q    Type
                         _______ _______ _______ _____ _____    ______ ____

>  <TORSDO>
F 6

>  <minimizedAffinity>
-6.2031070326435716

$$$$
ZINC43323823
 OpenBabel10211212583D

 21 21  0  0  1  0  0  0  0  0999 V2000
   50.5620   53.5490   19.7220 C   0  0  1  0  0  0  0  0  0  0  0  0
   49.4790   54.5990   19.4620 C   0  0  0  0  0  0  0  0  0  0  0  0
   48.2710   53.9340   18.7960 C   0  0  0  0  0  0  0  0  0  0  0  0
   48.6990   53.3370   17.4520 C   0  0  0  0  0  0  0  0  0  0  0  0
   49.8360   52.4340   17.6750 N   0  0  0  0  0  0  0  0  0  0  0  0
   49.7990   51.1620   17.2350 C   0  0  0  0  0  0  0  0  0  0  0  0
   50.7470   50.4250   17.4250 O   0  0  0  0  0  0  0  0  0  0  0  0
   51.0150   52.9460   18.3880 C   0  0  0  0  0  0  0  0  0  0  0  0
   51.7090   54.1800   20.3890 N   0  0  0  0  0  0  0  0  0  0  0  0
   52.5540   53.9620   19.8820 H   0  0  0  0  0  0  0  0  0  0  0  0
   51.5770   55.1800   20.4100 H   0  0  0  0  0  0  0  0  0  0  0  0
   51.8170   53.6720   21.7630 C   0  0  2  0  0  0  0  0  0  0  0  0
   50.8140   52.5360   21.9670 C   0  0  0  0  0  0  0  0  0  0  0  0
   51.5180   54.8020   22.7500 C   0  0  0  0  0  0  0  0  0  0  0  0
   50.5810   57.0130   22.0620 C   0  0  0  0  0  0  0  0  0  0  0  0
   51.8420   56.1480   22.0990 C   0  0  0  0  0  0  0  0  0  0  0  0
   48.7130   50.7060   16.5830 O   0  0  0  0  0  0  0  0  0  0  0  0
   48.0050   49.6190   17.1830 C   0  0  0  0  0  0  0  0  0  0  0  0
   46.5090   49.9410   17.2150 C   0  0  0  0  0  0  0  0  0  0  0  0
   48.5120   49.4070   18.6110 C   0  0  0  0  0  0  0  0  0  0  0  0
   48.2360   48.3460   16.3660 C   0  0  0  0  0  0  0  0  0  0  0  0
  1  9  1  6  0  0  0
  2  1  1  0  0  0  0
  3  2  1  0  0  0  0
  4  5  1  0  0  0  0
  4  3  1  0  0  0  0
  5  8  1  0  0  0  0
  6  7  2  0  0  0  0
  6  5  1  0  0  0  0
  8  1  1  0  0  0  0
  9 11  1  0  0  0  0
 10  9  1  0  0  0  0
 12  9  1  6  0  0  0
 12 13  1  0  0  0  0
 12 14  1  0  0  0  0
 15 16  1  0  0  0  0
 16 14  1  0  0  0  0
 17 18  1  0  0  0  0
 17  6  1  0  0  0  0
 18 19  1  0  0  0  0
 18 20  1  0  0  0  0
 21 18  1  0  0  0  0
M  END
>  <MODEL>
7

>  <REMARK>
  Name = ZINC43323823
                            x       y       z     vdW  Elec       q    Type
                         _______ _______ _______ _____ _____    ______ ____

>  <TORSDO>
F 6

>  <minimizedAffinity>
-6.1227096985182801

$$$$
ZINC43323823
 OpenBabel10211212583D

 21 21  0  0  1  0  0  0  0  0999 V2000
   48.0650   48.2630   17.5200 C   0  0  1  0  0  0  0  0  0  0  0  0
   47.1510   48.5120   18.7230 C   0  0  0  0  0  0  0  0  0  0  0  0
   45.7370   48.0240   18.4000 C   0  0  0  0  0  0  0  0  0  0  0  0
   45.1900   48.8110   17.2060 C   0  0  0  0  0  0  0  0  0  0  0  0
   46.1370   48.6950   16.0880 N   0  0  0  0  0  0  0  0  0  0  0  0
   45.7230   48.2700   14.8790 C   0  0  0  0  0  0  0  0  0  0  0  0
   46.5160   48.1790   13.9620 O   0  0  0  0  0  0  0  0  0  0  0  0
   47.5440   49.0520   16.3150 C   0  0  0  0  0  0  0  0  0  0  0  0
   49.4300   48.7020   17.8420 N   0  0  0  0  0  0  0  0  0  0  0  0
   50.0000   47.8970   18.0550 H   0  0  0  0  0  0  0  0  0  0  0  0
   49.8210   49.1910   17.0510 H   0  0  0  0  0  0  0  0  0  0  0  0
   49.3950   49.5990   19.0040 C   0  0  2  0  0  0  0  0  0  0  0  0
   49.7640   51.0170   18.5650 C   0  0  0  0  0  0  0  0  0  0  0  0
   50.3950   49.1130   20.0540 C   0  0  0  0  0  0  0  0  0  0  0  0
   52.8210   49.6640   19.8270 C   0  0  0  0  0  0  0  0  0  0  0  0
   51.4580   50.1880   20.2840 C   0  0  0  0  0  0  0  0  0  0  0  0
   44.4310   47.9460   14.6840 O   0  0  0  0  0  0  0  0  0  0  0  0
   44.1410   46.5770   14.3980 C   0  0  0  0  0  0  0  0  0  0  0  0
   44.9650   45.6770   15.3210 C   0  0  0  0  0  0  0  0  0  0  0  0
   44.4950   46.2750   12.9400 C   0  0  0  0  0  0  0  0  0  0  0  0
   42.6510   46.3120   14.6250 C   0  0  0  0  0  0  0  0  0  0  0  0
  1  9  1  1  0  0  0
  1  2  1  0  0  0  0
  3  2  1  0  0  0  0
  4  3  1  0  0  0  0
  5  8  1  0  0  0  0
  5  4  1  0  0  0  0
  6  5  1  0  0  0  0
  7  6  2  0  0  0  0
  8  1  1  0  0  0  0
  9 10  1  0  0  0  0
 11  9  1  0  0  0  0
 12  9  1  6  0  0  0
 12 14  1  0  0  0  0
 13 12  1  0  0  0  0
 14 16  1  0  0  0  0
 15 16  1  0  0  0  0
 17  6  1  0  0  0  0
 18 21  1  0  0  0  0
 18 17  1  0  0  0  0
 18 19  1  0  0  0  0
 20 18  1  0  0  0  0
M  END
>  <MODEL>
8

>  <REMARK>
  Name = ZINC43323823
                            x       y       z     vdW  Elec       q    Type
                         _______ _______ _______ _____ _____    ______ ____

>  <TORSDO>
F 6

>  <minimizedAffinity>
-6.077985132991353

$$$$
ZINC43323823
 OpenBabel10211212583D

 21 21  0  0  1  0  0  0  0  0999 V2000
   50.1820   50.7640   17.6190 C   0  0  1  0  0  0  0  0  0  0  0  0
   49.8980   50.2270   19.0240 C   0  0  0  0  0  0  0  0  0  0  0  0
   49.3660   48.7950   18.9260 C   0  0  0  0  0  0  0  0  0  0  0  0
   48.0550   48.7950   18.1340 C   0  0  0  0  0  0  0  0  0  0  0  0
   48.2870   49.4420   16.8350 N   0  0  0  0  0  0  0  0  0  0  0  0
   47.9610   48.8150   15.6880 C   0  0  0  0  0  0  0  0  0  0  0  0
   48.1570   49.3610   14.6200 O   0  0  0  0  0  0  0  0  0  0  0  0
   48.8800   50.7850   16.8110 C   0  0  0  0  0  0  0  0  0  0  0  0
   50.7220   52.1270   17.7150 N   0  0  0  0  0  0  0  0  0  0  0  0
   51.7290   52.0930   17.6580 H   0  0  0  0  0  0  0  0  0  0  0  0
   50.3610   52.6860   16.9580 H   0  0  0  0  0  0  0  0  0  0  0  0
   50.3240   52.7230   18.9970 C   0  0  2  0  0  0  0  0  0  0  0  0
   49.2390   53.7740   18.7560 C   0  0  0  0  0  0  0  0  0  0  0  0
   51.5390   53.3830   19.6510 C   0  0  0  0  0  0  0  0  0  0  0  0
   50.8670   52.6190   21.9340 C   0  0  0  0  0  0  0  0  0  0  0  0
   51.9680   52.5670   20.8720 C   0  0  0  0  0  0  0  0  0  0  0  0
   47.4170   47.5840   15.7240 O   0  0  0  0  0  0  0  0  0  0  0  0
   46.0330   47.4750   15.3870 C   0  0  0  0  0  0  0  0  0  0  0  0
   45.2370   48.5350   16.1530 C   0  0  0  0  0  0  0  0  0  0  0  0
   45.5240   46.0830   15.7650 C   0  0  0  0  0  0  0  0  0  0  0  0
   45.8550   47.6920   13.8830 C   0  0  0  0  0  0  0  0  0  0  0  0
  1  9  1  1  0  0  0
  1  2  1  0  0  0  0
  3  2  1  0  0  0  0
  4  3  1  0  0  0  0
  5  4  1  0  0  0  0
  6 17  1  0  0  0  0
  6  5  1  0  0  0  0
  7  6  2  0  0  0  0
  8  5  1  0  0  0  0
  8  1  1  0  0  0  0
 10  9  1  0  0  0  0
 11  9  1  0  0  0  0
 12  9  1  6  0  0  0
 12 14  1  0  0  0  0
 13 12  1  0  0  0  0
 14 16  1  0  0  0  0
 16 15  1  0  0  0  0
 18 17  1  0  0  0  0
 18 20  1  0  0  0  0
 18 19  1  0  0  0  0
 21 18  1  0  0  0  0
M  END
>  <MODEL>
9

>  <REMARK>
  Name = ZINC43323823
                            x       y       z     vdW  Elec       q    Type
                         _______ _______ _______ _____ _____    ______ ____

>  <TORSDO>
F 6

>  <minimizedAffinity>
-5.9223154691660449

$$$$
ZINC37741163
 OpenBabel10211212593D

 22 23  0  0  1  0  0  0  0  0999 V2000
   51.7550   53.3220   20.3380 N   0  0  0  0  0  0  0  0  0  0  0  0
   52.4290   52.7160   19.3520 C   0  0  0  0  0  0  0  0  0  0  0  0
   52.8110   51.3210   19.7950 C   0  0  0  0  0  0  0  0  0  0  0  0
   52.2360   51.2240   21.2220 C   0  0  1  0  0  0  0  0  0  0  0  0
   52.6910   53.2080   18.2750 O   0  0  0  0  0  0  0  0  0  0  0  0
   51.5950   52.5780   21.4390 C   0  0  0  0  0  0  0  0  0  0  0  0
   51.0230   52.9300   22.4480 O   0  0  0  0  0  0  0  0  0  0  0  0
   51.2370   50.1510   21.3070 N   0  0  0  0  0  0  0  0  0  0  0  0
   50.3320   50.5490   21.5110 H   0  0  0  0  0  0  0  0  0  0  0  0
   51.4950   49.5090   22.0420 H   0  0  0  0  0  0  0  0  0  0  0  0
   51.1800   49.4320   20.0280 C   0  0  0  0  0  0  0  0  0  0  0  0
   49.7400   48.9980   19.7500 C   0  0  0  0  0  0  0  0  0  0  0  0
   49.3690   49.3530   18.3090 C   0  0  0  0  0  0  0  0  0  0  0  0
   49.2890   50.8850   18.1460 C   0  0  0  0  0  0  0  0  0  0  0  0
   48.1050   51.1030   17.1720 C   0  0  0  0  0  0  0  0  0  0  0  0
   47.0930   50.0190   17.6170 C   0  0  0  0  0  0  0  0  0  0  0  0
   47.9720   48.8030   17.9730 C   0  0  0  0  0  0  0  0  0  0  0  0
   51.2430   54.6900   20.2240 C   0  0  0  0  0  0  0  0  0  0  0  0
   49.0820   54.3700   19.0100 C   0  0  0  0  0  0  0  0  0  0  0  0
   49.7190   54.6780   20.3670 C   0  0  0  0  0  0  0  0  0  0  0  0
   51.8510   55.5560   21.3290 C   0  0  0  0  0  0  0  0  0  0  0  0
   50.7790   56.4870   21.8960 C   0  0  0  0  0  0  0  0  0  0  0  0
  1  6  1  0  0  0  0
  2  3  1  0  0  0  0
  2  1  1  0  0  0  0
  3  4  1  0  0  0  0
  4  8  1  6  0  0  0
  4  6  1  0  0  0  0
  5  2  2  0  0  0  0
  6  7  2  0  0  0  0
  8  9  1  0  0  0  0
  8 10  1  0  0  0  0
 11  8  1  0  0  0  0
 12 11  1  0  0  0  0
 13 12  1  0  0  0  0
 14 13  1  0  0  0  0
 15 16  1  0  0  0  0
 15 14  1  0  0  0  0
 16 17  1  0  0  0  0
 17 13  1  0  0  0  0
 18  1  1  0  0  0  0
 18 20  1  0  0  0  0
 18 21  1  0  0  0  0
 19 20  1  0  0  0  0
 21 22  1  0  0  0  0
M  END
>  <MODEL>
1

>  <REMARK>
  Name = ZINC37741163
                            x       y       z     vdW  Elec       q    Type
                         _______ _______ _______ _____ _____    ______ ____

>  <TORSDO>
F 7

>  <minimizedAffinity>
-7.0915379739227546

$$$$
ZINC37741163
 OpenBabel10211212593D

 22 23  0  0  1  0  0  0  0  0999 V2000
   50.9380   55.2610   20.8500 N   0  0  0  0  0  0  0  0  0  0  0  0
   51.4390   54.6340   21.9220 C   0  0  0  0  0  0  0  0  0  0  0  0
   51.1530   53.1530   21.8100 C   0  0  0  0  0  0  0  0  0  0  0  0
   50.3920   53.0310   20.4760 C   0  0  1  0  0  0  0  0  0  0  0  0
   52.0300   55.1690   22.8360 O   0  0  0  0  0  0  0  0  0  0  0  0
   50.3210   54.4570   19.9750 C   0  0  0  0  0  0  0  0  0  0  0  0
   49.7940   54.8140   18.9440 O   0  0  0  0  0  0  0  0  0  0  0  0
   51.1300   52.1800   19.5340 N   0  0  0  0  0  0  0  0  0  0  0  0
   51.9760   51.8470   19.9730 H   0  0  0  0  0  0  0  0  0  0  0  0
   51.3670   52.7150   18.7110 H   0  0  0  0  0  0  0  0  0  0  0  0
   50.2950   51.0350   19.1480 C   0  0  0  0  0  0  0  0  0  0  0  0
   49.3130   51.4640   18.0560 C   0  0  0  0  0  0  0  0  0  0  0  0
   48.6240   50.2280   17.4750 C   0  0  0  0  0  0  0  0  0  0  0  0
   47.1250   50.5150   17.2520 C   0  0  0  0  0  0  0  0  0  0  0  0
   46.4250   49.1810   17.6140 C   0  0  0  0  0  0  0  0  0  0  0  0
   47.2520   48.6790   18.8230 C   0  0  0  0  0  0  0  0  0  0  0  0
   48.7050   49.0600   18.4730 C   0  0  0  0  0  0  0  0  0  0  0  0
   51.0480   56.7090   20.6550 C   0  0  0  0  0  0  0  0  0  0  0  0
   48.8400   57.6020   21.4120 C   0  0  0  0  0  0  0  0  0  0  0  0
   50.3140   57.4340   21.7860 C   0  0  0  0  0  0  0  0  0  0  0  0
   52.5230   57.1140   20.6630 C   0  0  0  0  0  0  0  0  0  0  0  0
   52.6920   58.4110   21.4570 C   0  0  0  0  0  0  0  0  0  0  0  0
  1  2  1  0  0  0  0
  2  5  2  0  0  0  0
  3  2  1  0  0  0  0
  4  8  1  6  0  0  0
  4  3  1  0  0  0  0
  6  4  1  0  0  0  0
  6  1  1  0  0  0  0
  7  6  2  0  0  0  0
  8  9  1  0  0  0  0
 10  8  1  0  0  0  0
 11  8  1  0  0  0  0
 12 11  1  0  0  0  0
 13 12  1  0  0  0  0
 13 17  1  0  0  0  0
 14 13  1  0  0  0  0
 14 15  1  0  0  0  0
 15 16  1  0  0  0  0
 17 16  1  0  0  0  0
 18 21  1  0  0  0  0
 18  1  1  0  0  0  0
 18 20  1  0  0  0  0
 19 20  1  0  0  0  0
 21 22  1  0  0  0  0
M  END
>  <MODEL>
2

>  <REMARK>
  Name = ZINC37741163
                            x       y       z     vdW  Elec       q    Type
                         _______ _______ _______ _____ _____    ______ ____

>  <TORSDO>
F 7

>  <minimizedAffinity>
-7.039245466813858

$$$$
ZINC37741163
 OpenBabel10211212593D

 22 23  0  0  1  0  0  0  0  0999 V2000
   50.6020   50.4070   18.2940 N   0  0  0  0  0  0  0  0  0  0  0  0
   49.9880   49.5530   19.1230 C   0  0  0  0  0  0  0  0  0  0  0  0
   50.9400   49.1690   20.2340 C   0  0  0  0  0  0  0  0  0  0  0  0
   52.2220   49.9570   19.9010 C   0  0  1  0  0  0  0  0  0  0  0  0
   48.8510   49.1510   19.0020 O   0  0  0  0  0  0  0  0  0  0  0  0
   51.8630   50.6990   18.6320 C   0  0  0  0  0  0  0  0  0  0  0  0
   52.6000   51.4420   18.0210 O   0  0  0  0  0  0  0  0  0  0  0  0
   52.5500   50.8950   20.9820 N   0  0  0  0  0  0  0  0  0  0  0  0
   53.2400   51.5560   20.6570 H   0  0  0  0  0  0  0  0  0  0  0  0
   52.9200   50.3840   21.7710 H   0  0  0  0  0  0  0  0  0  0  0  0
   51.3370   51.6150   21.3920 C   0  0  0  0  0  0  0  0  0  0  0  0
   51.7260   52.9600   22.0080 C   0  0  0  0  0  0  0  0  0  0  0  0
   51.5070   54.0730   20.9820 C   0  0  0  0  0  0  0  0  0  0  0  0
   51.1300   55.3860   21.6990 C   0  0  0  0  0  0  0  0  0  0  0  0
   50.0850   56.0440   20.7640 C   0  0  0  0  0  0  0  0  0  0  0  0
   49.2700   54.8300   20.2550 C   0  0  0  0  0  0  0  0  0  0  0  0
   50.3240   53.7200   20.0640 C   0  0  0  0  0  0  0  0  0  0  0  0
   49.9480   50.9700   17.1090 C   0  0  0  0  0  0  0  0  0  0  0  0
   50.4450   49.8720   14.9200 C   0  0  0  0  0  0  0  0  0  0  0  0
   49.5490   49.8380   16.1600 C   0  0  0  0  0  0  0  0  0  0  0  0
   48.6980   51.7420   17.5350 C   0  0  0  0  0  0  0  0  0  0  0  0
   48.0950   52.4480   16.3190 C   0  0  0  0  0  0  0  0  0  0  0  0
  1  6  1  0  0  0  0
  1  2  1  0  0  0  0
  2  3  1  0  0  0  0
  4  3  1  0  0  0  0
  4  8  1  1  0  0  0
  5  2  2  0  0  0  0
  6  4  1  0  0  0  0
  7  6  2  0  0  0  0
  8 11  1  0  0  0  0
  8 10  1  0  0  0  0
  9  8  1  0  0  0  0
 11 12  1  0  0  0  0
 13 14  1  0  0  0  0
 13 12  1  0  0  0  0
 15 14  1  0  0  0  0
 16 15  1  0  0  0  0
 17 16  1  0  0  0  0
 17 13  1  0  0  0  0
 18 21  1  0  0  0  0
 18  1  1  0  0  0  0
 19 20  1  0  0  0  0
 20 18  1  0  0  0  0
 22 21  1  0  0  0  0
M  END
>  <MODEL>
3

>  <REMARK>
  Name = ZINC37741163
                            x       y       z     vdW  Elec       q    Type
                         _______ _______ _______ _____ _____    ______ ____

>  <TORSDO>
F 7

>  <minimizedAffinity>
-6.9137477658622135

$$$$
ZINC37741163
 OpenBabel10211212593D

 22 23  0  0  1  0  0  0  0  0999 V2000
   48.8590   50.0890   17.5890 N   0  0  0  0  0  0  0  0  0  0  0  0
   49.7220   50.0080   18.6090 C   0  0  0  0  0  0  0  0  0  0  0  0
   50.3980   51.3480   18.7960 C   0  0  0  0  0  0  0  0  0  0  0  0
   49.7710   52.2270   17.6960 C   0  0  1  0  0  0  0  0  0  0  0  0
   49.9290   49.0170   19.2770 O   0  0  0  0  0  0  0  0  0  0  0  0
   48.8100   51.2890   16.9980 C   0  0  0  0  0  0  0  0  0  0  0  0
   48.1040   51.5800   16.0560 O   0  0  0  0  0  0  0  0  0  0  0  0
   49.0560   53.3660   18.2880 N   0  0  0  0  0  0  0  0  0  0  0  0
   48.3310   53.0250   18.9030 H   0  0  0  0  0  0  0  0  0  0  0  0
   48.6410   53.9210   17.5540 H   0  0  0  0  0  0  0  0  0  0  0  0
   49.9990   54.1930   19.0530 C   0  0  0  0  0  0  0  0  0  0  0  0
   49.2750   54.8230   20.2440 C   0  0  0  0  0  0  0  0  0  0  0  0
   49.2900   56.3460   20.1020 C   0  0  0  0  0  0  0  0  0  0  0  0
   49.4910   57.0030   21.4840 C   0  0  0  0  0  0  0  0  0  0  0  0
   48.5990   58.2680   21.4360 C   0  0  0  0  0  0  0  0  0  0  0  0
   47.3560   57.7810   20.6520 C   0  0  0  0  0  0  0  0  0  0  0  0
   47.9330   56.8410   19.5740 C   0  0  0  0  0  0  0  0  0  0  0  0
   48.0420   48.9550   17.1490 C   0  0  0  0  0  0  0  0  0  0  0  0
   46.0780   48.3010   18.5500 C   0  0  0  0  0  0  0  0  0  0  0  0
   46.5680   49.2430   17.4480 C   0  0  0  0  0  0  0  0  0  0  0  0
   48.2250   48.7470   15.6450 C   0  0  0  0  0  0  0  0  0  0  0  0
   46.8680   48.4610   15.0000 C   0  0  0  0  0  0  0  0  0  0  0  0
  1  2  1  0  0  0  0
  2  3  1  0  0  0  0
  2  5  2  0  0  0  0
  4  8  1  1  0  0  0
  4  3  1  0  0  0  0
  6  1  1  0  0  0  0
  6  4  1  0  0  0  0
  7  6  2  0  0  0  0
  8  9  1  0  0  0  0
  8 11  1  0  0  0  0
 10  8  1  0  0  0  0
 11 12  1  0  0  0  0
 13 12  1  0  0  0  0
 13 14  1  0  0  0  0
 15 14  1  0  0  0  0
 16 15  1  0  0  0  0
 17 13  1  0  0  0  0
 17 16  1  0  0  0  0
 18 20  1  0  0  0  0
 18  1  1  0  0  0  0
 20 19  1  0  0  0  0
 21 18  1  0  0  0  0
 22 21  1  0  0  0  0
M  END
>  <MODEL>
4

>  <REMARK>
  Name = ZINC37741163
                            x       y       z     vdW  Elec       q    Type
                         _______ _______ _______ _____ _____    ______ ____

>  <TORSDO>
F 7

>  <minimizedAffinity>
-6.757265334911569

$$$$
ZINC37741163
 OpenBabel10211212593D

 22 23  0  0  1  0  0  0  0  0999 V2000
   51.4640   53.6020   20.4100 N   0  0  0  0  0  0  0  0  0  0  0  0
   52.1010   53.9550   19.2860 C   0  0  0  0  0  0  0  0  0  0  0  0
   52.7860   52.7400   18.7010 C   0  0  0  0  0  0  0  0  0  0  0  0
   52.4320   51.6120   19.6910 C   0  0  1  0  0  0  0  0  0  0  0  0
   52.1240   55.0710   18.8130 O   0  0  0  0  0  0  0  0  0  0  0  0
   51.5880   52.3100   20.7360 C   0  0  0  0  0  0  0  0  0  0  0  0
   51.0990   51.7810   21.7110 O   0  0  0  0  0  0  0  0  0  0  0  0
   51.6660   50.5540   19.0190 N   0  0  0  0  0  0  0  0  0  0  0  0
   51.0090   50.1500   19.6700 H   0  0  0  0  0  0  0  0  0  0  0  0
   52.2970   49.8380   18.6910 H   0  0  0  0  0  0  0  0  0  0  0  0
   50.9380   51.1250   17.8780 C   0  0  0  0  0  0  0  0  0  0  0  0
   49.4560   51.2560   18.2320 C   0  0  0  0  0  0  0  0  0  0  0  0
   48.6600   50.1700   17.5040 C   0  0  0  0  0  0  0  0  0  0  0  0
   47.2220   50.6600   17.2360 C   0  0  0  0  0  0  0  0  0  0  0  0
   46.3480   49.3970   17.4360 C   0  0  0  0  0  0  0  0  0  0  0  0
   47.0340   48.6920   18.6320 C   0  0  0  0  0  0  0  0  0  0  0  0
   48.5400   48.9190   18.3920 C   0  0  0  0  0  0  0  0  0  0  0  0
   50.6990   54.5540   21.2210 C   0  0  0  0  0  0  0  0  0  0  0  0
   51.1110   56.7870   22.2640 C   0  0  0  0  0  0  0  0  0  0  0  0
   51.6590   55.3690   22.0900 C   0  0  0  0  0  0  0  0  0  0  0  0
   49.9190   55.4950   20.3020 C   0  0  0  0  0  0  0  0  0  0  0  0
   48.6670   54.7840   19.7860 C   0  0  0  0  0  0  0  0  0  0  0  0
  1  6  1  0  0  0  0
  1 18  1  0  0  0  0
  2  1  1  0  0  0  0
  3  2  1  0  0  0  0
  3  4  1  0  0  0  0
  4  8  1  6  0  0  0
  4  6  1  0  0  0  0
  5  2  2  0  0  0  0
  6  7  2  0  0  0  0
  8  9  1  0  0  0  0
 10  8  1  0  0  0  0
 11 12  1  0  0  0  0
 11  8  1  0  0  0  0
 13 12  1  0  0  0  0
 13 17  1  0  0  0  0
 14 15  1  0  0  0  0
 14 13  1  0  0  0  0
 15 16  1  0  0  0  0
 17 16  1  0  0  0  0
 18 20  1  0  0  0  0
 20 19  1  0  0  0  0
 21 18  1  0  0  0  0
 22 21  1  0  0  0  0
M  END
>  <MODEL>
5

>  <REMARK>
  Name = ZINC37741163
                            x       y       z     vdW  Elec       q    Type
                         _______ _______ _______ _____ _____    ______ ____

>  <TORSDO>
F 7

>  <minimizedAffinity>
-6.645156385182327

$$$$
ZINC37741163
 OpenBabel10211212593D

 22 23  0  0  1  0  0  0  0  0999 V2000
   49.0920   51.2290   17.1960 N   0  0  0  0  0  0  0  0  0  0  0  0
   48.5030   52.3950   16.9050 C   0  0  0  0  0  0  0  0  0  0  0  0
   49.0970   53.4820   17.7740 C   0  0  0  0  0  0  0  0  0  0  0  0
   50.1410   52.7340   18.6270 C   0  0  1  0  0  0  0  0  0  0  0  0
   47.6330   52.5560   16.0760 O   0  0  0  0  0  0  0  0  0  0  0  0
   50.0230   51.3010   18.1540 C   0  0  0  0  0  0  0  0  0  0  0  0
   50.6730   50.3670   18.5750 O   0  0  0  0  0  0  0  0  0  0  0  0
   51.4890   53.2600   18.3750 N   0  0  0  0  0  0  0  0  0  0  0  0
   51.5600   53.5580   17.4130 H   0  0  0  0  0  0  0  0  0  0  0  0
   52.1710   52.5380   18.5540 H   0  0  0  0  0  0  0  0  0  0  0  0
   51.7430   54.4030   19.2630 C   0  0  0  0  0  0  0  0  0  0  0  0
   51.8120   53.9170   20.7120 C   0  0  0  0  0  0  0  0  0  0  0  0
   50.8980   54.7800   21.5830 C   0  0  0  0  0  0  0  0  0  0  0  0
   49.9310   55.5890   20.6950 C   0  0  0  0  0  0  0  0  0  0  0  0
   49.8060   56.9550   21.4150 C   0  0  0  0  0  0  0  0  0  0  0  0
   51.2440   57.2010   21.9320 C   0  0  0  0  0  0  0  0  0  0  0  0
   51.7330   55.8050   22.3700 C   0  0  0  0  0  0  0  0  0  0  0  0
   48.7390   49.9740   16.5260 C   0  0  0  0  0  0  0  0  0  0  0  0
   47.1790   49.0020   18.2190 C   0  0  0  0  0  0  0  0  0  0  0  0
   47.2790   49.6280   16.8260 C   0  0  0  0  0  0  0  0  0  0  0  0
   48.9260   50.1320   15.0160 C   0  0  0  0  0  0  0  0  0  0  0  0
   50.2950   49.5840   14.6100 C   0  0  0  0  0  0  0  0  0  0  0  0
  1  6  1  0  0  0  0
  2  1  1  0  0  0  0
  2  3  1  0  0  0  0
  3  4  1  0  0  0  0
  4  8  1  6  0  0  0
  5  2  2  0  0  0  0
  6  7  2  0  0  0  0
  6  4  1  0  0  0  0
  8 10  1  0  0  0  0
  8 11  1  0  0  0  0
  9  8  1  0  0  0  0
 11 12  1  0  0  0  0
 12 13  1  0  0  0  0
 13 17  1  0  0  0  0
 14 15  1  0  0  0  0
 14 13  1  0  0  0  0
 15 16  1  0  0  0  0
 16 17  1  0  0  0  0
 18 20  1  0  0  0  0
 18  1  1  0  0  0  0
 20 19  1  0  0  0  0
 21 18  1  0  0  0  0
 22 21  1  0  0  0  0
M  END
>  <MODEL>
6

>  <REMARK>
  Name = ZINC37741163
                            x       y       z     vdW  Elec       q    Type
                         _______ _______ _______ _____ _____    ______ ____

>  <TORSDO>
F 7

>  <minimizedAffinity>
-6.4747832138614623

$$$$
ZINC37741163
 OpenBabel10211212593D

 22 23  0  0  1  0  0  0  0  0999 V2000
   48.7000   51.1830   17.2700 N   0  0  0  0  0  0  0  0  0  0  0  0
   49.5980   51.0000   18.2460 C   0  0  0  0  0  0  0  0  0  0  0  0
   50.0880   52.3480   18.7290 C   0  0  0  0  0  0  0  0  0  0  0  0
   49.3090   53.3510   17.8550 C   0  0  1  0  0  0  0  0  0  0  0  0
   49.9610   49.9260   18.6750 O   0  0  0  0  0  0  0  0  0  0  0  0
   48.4650   52.4650   16.9640 C   0  0  0  0  0  0  0  0  0  0  0  0
   47.6960   52.8540   16.1120 O   0  0  0  0  0  0  0  0  0  0  0  0
   48.4630   54.2160   18.6870 N   0  0  0  0  0  0  0  0  0  0  0  0
   47.6460   53.7030   18.9830 H   0  0  0  0  0  0  0  0  0  0  0  0
   48.1790   55.0230   18.1520 H   0  0  0  0  0  0  0  0  0  0  0  0
   49.2210   54.6540   19.8670 C   0  0  0  0  0  0  0  0  0  0  0  0
   48.8090   56.0800   20.2370 C   0  0  0  0  0  0  0  0  0  0  0  0
   50.0610   56.9340   20.4450 C   0  0  0  0  0  0  0  0  0  0  0  0
   51.2820   56.2490   19.7980 C   0  0  0  0  0  0  0  0  0  0  0  0
   52.4480   56.5520   20.7720 C   0  0  0  0  0  0  0  0  0  0  0  0
   51.7700   56.4450   22.1600 C   0  0  0  0  0  0  0  0  0  0  0  0
   50.3710   57.0600   21.9460 C   0  0  0  0  0  0  0  0  0  0  0  0
   48.0330   50.0700   16.5880 C   0  0  0  0  0  0  0  0  0  0  0  0
   48.6820   47.7070   16.1000 C   0  0  0  0  0  0  0  0  0  0  0  0
   49.0840   49.1730   15.9290 C   0  0  0  0  0  0  0  0  0  0  0  0
   47.2320   49.2550   17.6040 C   0  0  0  0  0  0  0  0  0  0  0  0
   45.7420   49.5600   17.4420 C   0  0  0  0  0  0  0  0  0  0  0  0
  1  2  1  0  0  0  0
  2  5  2  0  0  0  0
  2  3  1  0  0  0  0
  4  8  1  1  0  0  0
  4  3  1  0  0  0  0
  6  1  1  0  0  0  0
  6  4  1  0  0  0  0
  7  6  2  0  0  0  0
  8  9  1  0  0  0  0
  8 11  1  0  0  0  0
 10  8  1  0  0  0  0
 11 12  1  0  0  0  0
 12 13  1  0  0  0  0
 13 17  1  0  0  0  0
 14 13  1  0  0  0  0
 14 15  1  0  0  0  0
 15 16  1  0  0  0  0
 17 16  1  0  0  0  0
 18  1  1  0  0  0  0
 18 21  1  0  0  0  0
 20 19  1  0  0  0  0
 20 18  1  0  0  0  0
 22 21  1  0  0  0  0
M  END
>  <MODEL>
7

>  <REMARK>
  Name = ZINC37741163
                            x       y       z     vdW  Elec       q    Type
                         _______ _______ _______ _____ _____    ______ ____

>  <TORSDO>
F 7

>  <minimizedAffinity>
-6.3714276848771032

$$$$
ZINC37741163
 OpenBabel10211212593D

 22 23  0  0  1  0  0  0  0  0999 V2000
   49.1050   51.7500   17.4640 N   0  0  0  0  0  0  0  0  0  0  0  0
   48.3490   52.7710   17.0420 C   0  0  0  0  0  0  0  0  0  0  0  0
   48.6270   53.9840   17.9020 C   0  0  0  0  0  0  0  0  0  0  0  0
   49.6850   53.4820   18.9050 C   0  0  1  0  0  0  0  0  0  0  0  0
   47.5660   52.7300   16.1170 O   0  0  0  0  0  0  0  0  0  0  0  0
   49.8890   52.0360   18.5100 C   0  0  0  0  0  0  0  0  0  0  0  0
   50.6470   51.2600   19.0530 O   0  0  0  0  0  0  0  0  0  0  0  0
   50.9320   54.2450   18.7670 N   0  0  0  0  0  0  0  0  0  0  0  0
   51.3390   54.0640   17.8610 H   0  0  0  0  0  0  0  0  0  0  0  0
   51.5800   53.9640   19.4880 H   0  0  0  0  0  0  0  0  0  0  0  0
   50.6470   55.6800   18.8990 C   0  0  0  0  0  0  0  0  0  0  0  0
   50.9550   56.1320   20.3280 C   0  0  0  0  0  0  0  0  0  0  0  0
   49.6440   56.3660   21.0830 C   0  0  0  0  0  0  0  0  0  0  0  0
   48.5380   56.7990   20.0990 C   0  0  0  0  0  0  0  0  0  0  0  0
   47.7140   57.8450   20.8900 C   0  0  0  0  0  0  0  0  0  0  0  0
   48.8030   58.6100   21.6810 C   0  0  0  0  0  0  0  0  0  0  0  0
   49.8130   57.5170   22.0890 C   0  0  0  0  0  0  0  0  0  0  0  0
   49.0710   50.4260   16.8370 C   0  0  0  0  0  0  0  0  0  0  0  0
   49.9730   49.5180   14.6910 C   0  0  0  0  0  0  0  0  0  0  0  0
   50.3350   50.2260   15.9980 C   0  0  0  0  0  0  0  0  0  0  0  0
   49.0030   49.3500   17.9220 C   0  0  0  0  0  0  0  0  0  0  0  0
   47.5410   49.0690   18.2720 C   0  0  0  0  0  0  0  0  0  0  0  0
  1  6  1  0  0  0  0
  2  1  1  0  0  0  0
  2  3  1  0  0  0  0
  3  4  1  0  0  0  0
  4  8  1  6  0  0  0
  5  2  2  0  0  0  0
  6  4  1  0  0  0  0
  6  7  2  0  0  0  0
  8 11  1  0  0  0  0
  8 10  1  0  0  0  0
  9  8  1  0  0  0  0
 11 12  1  0  0  0  0
 12 13  1  0  0  0  0
 13 17  1  0  0  0  0
 14 15  1  0  0  0  0
 14 13  1  0  0  0  0
 15 16  1  0  0  0  0
 16 17  1  0  0  0  0
 18  1  1  0  0  0  0
 18 21  1  0  0  0  0
 19 20  1  0  0  0  0
 20 18  1  0  0  0  0
 21 22  1  0  0  0  0
M  END
>  <MODEL>
8

>  <REMARK>
  Name = ZINC37741163
                            x       y       z     vdW  Elec       q    Type
                         _______ _______ _______ _____ _____    ______ ____

>  <TORSDO>
F 7

>  <minimizedAffinity>
-6.2752525987327976

$$$$
ZINC37741163
 OpenBabel10211212593D

 22 23  0  0  1  0  0  0  0  0999 V2000
   45.7830   62.4120   17.9050 N   0  0  0  0  0  0  0  0  0  0  0  0
   46.1240   62.1800   19.1780 C   0  0  0  0  0  0  0  0  0  0  0  0
   46.2620   60.6890   19.3920 C   0  0  0  0  0  0  0  0  0  0  0  0
   45.9380   60.0930   18.0080 C   0  0  1  0  0  0  0  0  0  0  0  0
   46.2960   63.0300   20.0250 O   0  0  0  0  0  0  0  0  0  0  0  0
   45.6450   61.3100   17.1580 C   0  0  0  0  0  0  0  0  0  0  0  0
   45.3370   61.2890   15.9850 O   0  0  0  0  0  0  0  0  0  0  0  0
   47.0900   59.3500   17.4810 N   0  0  0  0  0  0  0  0  0  0  0  0
   47.6340   59.9530   16.8820 H   0  0  0  0  0  0  0  0  0  0  0  0
   46.7640   58.5550   16.9500 H   0  0  0  0  0  0  0  0  0  0  0  0
   47.9250   58.8830   18.5960 C   0  0  0  0  0  0  0  0  0  0  0  0
   47.7530   57.3730   18.7640 C   0  0  0  0  0  0  0  0  0  0  0  0
   48.0490   56.9840   20.2140 C   0  0  0  0  0  0  0  0  0  0  0  0
   48.2030   58.2510   21.0800 C   0  0  0  0  0  0  0  0  0  0  0  0
   49.3320   57.8940   22.0790 C   0  0  0  0  0  0  0  0  0  0  0  0
   50.3080   57.0660   21.2090 C   0  0  0  0  0  0  0  0  0  0  0  0
   49.3870   56.2300   20.2970 C   0  0  0  0  0  0  0  0  0  0  0  0
   45.5710   63.7610   17.3730 C   0  0  0  0  0  0  0  0  0  0  0  0
   43.1060   63.9850   17.7180 C   0  0  0  0  0  0  0  0  0  0  0  0
   44.4820   64.4640   18.1870 C   0  0  0  0  0  0  0  0  0  0  0  0
   46.8730   64.5570   17.4700 C   0  0  0  0  0  0  0  0  0  0  0  0
   46.6890   65.9200   16.8000 C   0  0  0  0  0  0  0  0  0  0  0  0
  1  2  1  0  0  0  0
  2  3  1  0  0  0  0
  2  5  2  0  0  0  0
  4  8  1  6  0  0  0
  4  3  1  0  0  0  0
  6  1  1  0  0  0  0
  6  4  1  0  0  0  0
  7  6  2  0  0  0  0
  8 11  1  0  0  0  0
  9  8  1  0  0  0  0
 10  8  1  0  0  0  0
 11 12  1  0  0  0  0
 12 13  1  0  0  0  0
 13 17  1  0  0  0  0
 13 14  1  0  0  0  0
 14 15  1  0  0  0  0
 16 15  1  0  0  0  0
 17 16  1  0  0  0  0
 18 21  1  0  0  0  0
 18  1  1  0  0  0  0
 18 20  1  0  0  0  0
 19 20  1  0  0  0  0
 22 21  1  0  0  0  0
M  END
>  <MODEL>
9

>  <REMARK>
  Name = ZINC37741163
                            x       y       z     vdW  Elec       q    Type
                         _______ _______ _______ _____ _____    ______ ____

>  <TORSDO>
F 7

>  <minimizedAffinity>
-5.9112891753289079

$$$$
ZINC44784236
 OpenBabel10211213003D

 23 23  0  0  0  0  0  0  0  0999 V2000
   51.7060   52.3990   20.0590 C   0  0  0  0  0  0  0  0  0  0  0  0
   52.6760   53.5940   19.9750 C   0  0  0  0  0  0  0  0  0  0  0  0
   52.0960   54.6160   19.0350 C   0  0  0  0  0  0  0  0  0  0  0  0
   51.2810   55.6980   19.7710 C   0  0  0  0  0  0  0  0  0  0  0  0
   50.3970   55.1200   20.8920 C   0  0  0  0  0  0  0  0  0  0  0  0
   49.7180   53.8390   20.4880 C   0  0  0  0  0  0  0  0  0  0  0  0
   50.5880   52.6540   20.9560 C   0  0  0  0  0  0  0  0  0  0  0  0
   50.2180   51.1670   18.5130 N   0  0  0  0  0  0  0  0  0  0  0  0
   51.1690   52.1080   18.6810 C   0  0  0  0  0  0  0  0  0  0  0  0
   51.5930   52.7190   17.7240 O   0  0  0  0  0  0  0  0  0  0  0  0
   49.8270   50.3120   19.6360 C   0  0  0  0  0  0  0  0  0  0  0  0
   49.7650   48.8550   19.1720 C   0  0  0  0  0  0  0  0  0  0  0  0
   49.5780   50.9980   17.2060 C   0  0  0  0  0  0  0  0  0  0  0  0
   48.1340   51.4990   17.2790 C   0  0  0  0  0  0  0  0  0  0  0  0
   48.3300   53.9830   17.0900 C   0  0  0  0  0  0  0  0  0  0  0  0
   47.9620   52.6980   16.3440 C   0  0  0  0  0  0  0  0  0  0  0  0
   52.4610   51.1920   20.5520 C   0  0  0  0  0  0  0  0  0  0  0  0
   53.0900   50.4370   19.7140 N   0  0  0  0  0  0  0  0  0  0  0  0
   52.4790   50.8940   21.8970 N   0  0  0  0  0  0  0  0  0  0  0  0
   53.2740   51.0740   22.4230 H   0  0  0  0  0  0  0  0  0  0  0  0
   51.6970   50.5040   22.3180 H   0  0  0  0  0  0  0  0  0  0  0  0
   53.8000   49.3020   20.1790 O   0  0  0  0  0  0  0  0  0  0  0  0
   54.2530   48.8090   19.4810 H   0  0  0  0  0  0  0  0  0  0  0  0
  1 17  1  0  0  0  0
  1  7  1  0  0  0  0
  2  1  1  0  0  0  0
  3  4  1  0  0  0  0
  3  2  1  0  0  0  0
  4  5  1  0  0  0  0
  6  5  1  0  0  0  0
  6  7  1  0  0  0  0
  8  9  1  0  0  0  0
  8 11  1  0  0  0  0
  9  1  1  0  0  0  0
 10  9  2  0  0  0  0
 12 11  1  0  0  0  0
 13 14  1  0  0  0  0
 13  8  1  0  0  0  0
 16 15  1  0  0  0  0
 16 14  1  0  0  0  0
 17 19  1  0  0  0  0
 18 22  1  0  0  0  0
 18 17  2  0  0  0  0
 19 21  1  0  0  0  0
 19 20  1  0  0  0  0
 23 22  1  0  0  0  0
M  END
>  <MODEL>
1

>  <REMARK>
  Name = ZINC44784236
                            x       y       z     vdW  Elec       q    Type
                         _______ _______ _______ _____ _____    ______ ____

>  <TORSDO>
F 8

>  <minimizedAffinity>
-6.5398965711036263

$$$$
ZINC44784236
 OpenBabel10211213003D

 23 23  0  0  0  0  0  0  0  0999 V2000
   51.8260   51.7670   19.2390 C   0  0  0  0  0  0  0  0  0  0  0  0
   52.7080   53.0250   19.3740 C   0  0  0  0  0  0  0  0  0  0  0  0
   51.8230   54.1980   19.6970 C   0  0  0  0  0  0  0  0  0  0  0  0
   51.7180   54.4590   21.2110 C   0  0  0  0  0  0  0  0  0  0  0  0
   51.5770   53.1630   22.0320 C   0  0  0  0  0  0  0  0  0  0  0  0
   50.6390   52.1740   21.3910 C   0  0  0  0  0  0  0  0  0  0  0  0
   51.4680   51.2000   20.5300 C   0  0  0  0  0  0  0  0  0  0  0  0
   49.6030   51.2080   18.3090 N   0  0  0  0  0  0  0  0  0  0  0  0
   50.5650   52.1340   18.5000 C   0  0  0  0  0  0  0  0  0  0  0  0
   50.4140   53.2600   18.0770 O   0  0  0  0  0  0  0  0  0  0  0  0
   49.8500   49.8100   18.6670 C   0  0  0  0  0  0  0  0  0  0  0  0
   48.5150   49.0780   18.8240 C   0  0  0  0  0  0  0  0  0  0  0  0
   48.3110   51.6010   17.7420 C   0  0  0  0  0  0  0  0  0  0  0  0
   48.4480   51.7620   16.2260 C   0  0  0  0  0  0  0  0  0  0  0  0
   49.2520   49.8310   14.8590 C   0  0  0  0  0  0  0  0  0  0  0  0
   48.0330   50.4620   15.5360 C   0  0  0  0  0  0  0  0  0  0  0  0
   52.5740   50.7310   18.4410 C   0  0  0  0  0  0  0  0  0  0  0  0
   52.7960   50.9210   17.1830 N   0  0  0  0  0  0  0  0  0  0  0  0
   53.0200   49.5810   19.0530 N   0  0  0  0  0  0  0  0  0  0  0  0
   52.4410   48.8040   19.1060 H   0  0  0  0  0  0  0  0  0  0  0  0
   53.9130   49.5470   19.4320 H   0  0  0  0  0  0  0  0  0  0  0  0
   53.4990   49.9460   16.4320 O   0  0  0  0  0  0  0  0  0  0  0  0
   53.5390   49.0780   16.8560 H   0  0  0  0  0  0  0  0  0  0  0  0
  1  2  1  0  0  0  0
  1  7  1  0  0  0  0
  2  3  1  0  0  0  0
  3  4  1  0  0  0  0
  4  5  1  0  0  0  0
  6  5  1  0  0  0  0
  7  6  1  0  0  0  0
  8  9  1  0  0  0  0
  8 11  1  0  0  0  0
  9  1  1  0  0  0  0
 10  9  2  0  0  0  0
 11 12  1  0  0  0  0
 13  8  1  0  0  0  0
 14 13  1  0  0  0  0
 15 16  1  0  0  0  0
 16 14  1  0  0  0  0
 17 19  1  0  0  0  0
 17  1  1  0  0  0  0
 18 17  2  0  0  0  0
 19 20  1  0  0  0  0
 19 21  1  0  0  0  0
 22 23  1  0  0  0  0
 22 18  1  0  0  0  0
M  END
>  <MODEL>
2

>  <REMARK>
  Name = ZINC44784236
                            x       y       z     vdW  Elec       q    Type
                         _______ _______ _______ _____ _____    ______ ____

>  <TORSDO>
F 8

>  <minimizedAffinity>
-6.5185781605630861

$$$$
ZINC44784236
 OpenBabel10211213003D

 23 23  0  0  0  0  0  0  0  0999 V2000
   48.8110   49.9260   16.8870 C   0  0  0  0  0  0  0  0  0  0  0  0
   48.8190   48.5360   17.5540 C   0  0  0  0  0  0  0  0  0  0  0  0
   48.1640   48.6490   18.9040 C   0  0  0  0  0  0  0  0  0  0  0  0
   46.6630   48.3040   18.8620 C   0  0  0  0  0  0  0  0  0  0  0  0
   45.9500   48.8910   17.6300 C   0  0  0  0  0  0  0  0  0  0  0  0
   46.3870   50.2990   17.3270 C   0  0  0  0  0  0  0  0  0  0  0  0
   47.5250   50.2460   16.2860 C   0  0  0  0  0  0  0  0  0  0  0  0
   48.8680   52.2670   17.6860 N   0  0  0  0  0  0  0  0  0  0  0  0
   49.1370   50.9680   17.9270 C   0  0  0  0  0  0  0  0  0  0  0  0
   49.6400   50.6380   18.9790 O   0  0  0  0  0  0  0  0  0  0  0  0
   48.4200   52.6880   16.3570 C   0  0  0  0  0  0  0  0  0  0  0  0
   47.7050   54.0370   16.4620 C   0  0  0  0  0  0  0  0  0  0  0  0
   49.0280   53.2580   18.7530 C   0  0  0  0  0  0  0  0  0  0  0  0
   50.4300   53.8660   18.6780 C   0  0  0  0  0  0  0  0  0  0  0  0
   49.0470   55.5050   19.9610 C   0  0  0  0  0  0  0  0  0  0  0  0
   50.4290   55.2340   19.3630 C   0  0  0  0  0  0  0  0  0  0  0  0
   49.8710   49.9590   15.8160 C   0  0  0  0  0  0  0  0  0  0  0  0
   49.5630   49.6740   14.5950 N   0  0  0  0  0  0  0  0  0  0  0  0
   51.1680   50.2900   16.1410 N   0  0  0  0  0  0  0  0  0  0  0  0
   51.8340   49.5930   16.2500 H   0  0  0  0  0  0  0  0  0  0  0  0
   51.4150   51.2210   16.2610 H   0  0  0  0  0  0  0  0  0  0  0  0
   50.5600   49.7040   13.5880 O   0  0  0  0  0  0  0  0  0  0  0  0
   51.2470   50.3680   13.7350 H   0  0  0  0  0  0  0  0  0  0  0  0
  1  2  1  0  0  0  0
  1  9  1  0  0  0  0
  2  3  1  0  0  0  0
  4  3  1  0  0  0  0
  5  4  1  0  0  0  0
  6  5  1  0  0  0  0
  7  1  1  0  0  0  0
  7  6  1  0  0  0  0
  8  9  1  0  0  0  0
  8 13  1  0  0  0  0
  9 10  2  0  0  0  0
 11 12  1  0  0  0  0
 11  8  1  0  0  0  0
 14 13  1  0  0  0  0
 14 16  1  0  0  0  0
 16 15  1  0  0  0  0
 17 19  1  0  0  0  0
 17  1  1  0  0  0  0
 18 17  2  0  0  0  0
 19 20  1  0  0  0  0
 19 21  1  0  0  0  0
 22 23  1  0  0  0  0
 22 18  1  0  0  0  0
M  END
>  <MODEL>
3

>  <REMARK>
  Name = ZINC44784236
                            x       y       z     vdW  Elec       q    Type
                         _______ _______ _______ _____ _____    ______ ____

>  <TORSDO>
F 8

>  <minimizedAffinity>
-6.4541434142771932

$$$$
ZINC44784236
 OpenBabel10211213003D

 23 23  0  0  0  0  0  0  0  0999 V2000
   51.5010   51.0400   19.3790 C   0  0  0  0  0  0  0  0  0  0  0  0
   52.7260   51.9120   19.7190 C   0  0  0  0  0  0  0  0  0  0  0  0
   52.8480   52.9930   18.6800 C   0  0  0  0  0  0  0  0  0  0  0  0
   52.1570   54.3020   19.1060 C   0  0  0  0  0  0  0  0  0  0  0  0
   50.7960   54.0650   19.7870 C   0  0  0  0  0  0  0  0  0  0  0  0
   49.9860   52.9980   19.0990 C   0  0  0  0  0  0  0  0  0  0  0  0
   50.2510   51.6520   19.8040 C   0  0  0  0  0  0  0  0  0  0  0  0
   50.3160   50.4060   17.3020 N   0  0  0  0  0  0  0  0  0  0  0  0
   51.4570   50.8220   17.8890 C   0  0  0  0  0  0  0  0  0  0  0  0
   52.4460   51.0190   17.2170 O   0  0  0  0  0  0  0  0  0  0  0  0
   49.1730   50.0060   18.1260 C   0  0  0  0  0  0  0  0  0  0  0  0
   48.9660   48.4940   18.0120 C   0  0  0  0  0  0  0  0  0  0  0  0
   50.2200   50.3530   15.8410 C   0  0  0  0  0  0  0  0  0  0  0  0
   48.8000   50.7270   15.4100 C   0  0  0  0  0  0  0  0  0  0  0  0
   47.2980   48.8500   14.7290 C   0  0  0  0  0  0  0  0  0  0  0  0
   48.3690   49.8320   14.2470 C   0  0  0  0  0  0  0  0  0  0  0  0
   51.6480   49.7050   20.0630 C   0  0  0  0  0  0  0  0  0  0  0  0
   50.7290   49.2880   20.8690 N   0  0  0  0  0  0  0  0  0  0  0  0
   52.7630   48.9320   19.8300 N   0  0  0  0  0  0  0  0  0  0  0  0
   53.2950   49.0750   19.0310 H   0  0  0  0  0  0  0  0  0  0  0  0
   53.0170   48.2430   20.4640 H   0  0  0  0  0  0  0  0  0  0  0  0
   50.8670   48.0340   21.5120 O   0  0  0  0  0  0  0  0  0  0  0  0
   51.0500   48.0960   22.4590 H   0  0  0  0  0  0  0  0  0  0  0  0
  1  2  1  0  0  0  0
  1  7  1  0  0  0  0
  1 17  1  0  0  0  0
  3  4  1  0  0  0  0
  3  2  1  0  0  0  0
  4  5  1  0  0  0  0
  6  5  1  0  0  0  0
  6  7  1  0  0  0  0
  8  9  1  0  0  0  0
  8 11  1  0  0  0  0
  9  1  1  0  0  0  0
 10  9  2  0  0  0  0
 12 11  1  0  0  0  0
 13  8  1  0  0  0  0
 14 13  1  0  0  0  0
 16 15  1  0  0  0  0
 16 14  1  0  0  0  0
 17 18  2  0  0  0  0
 18 22  1  0  0  0  0
 19 17  1  0  0  0  0
 19 21  1  0  0  0  0
 20 19  1  0  0  0  0
 22 23  1  0  0  0  0
M  END
>  <MODEL>
4

>  <REMARK>
  Name = ZINC44784236
                            x       y       z     vdW  Elec       q    Type
                         _______ _______ _______ _____ _____    ______ ____

>  <TORSDO>
F 8

>  <minimizedAffinity>
-6.2963998050548602

$$$$
ZINC44784236
 OpenBabel10211213003D

 23 23  0  0  0  0  0  0  0  0999 V2000
   48.1300   49.0730   16.2780 C   0  0  0  0  0  0  0  0  0  0  0  0
   47.4810   47.6740   16.2890 C   0  0  0  0  0  0  0  0  0  0  0  0
   47.0530   47.3560   17.6960 C   0  0  0  0  0  0  0  0  0  0  0  0
   45.5820   47.7260   17.9630 C   0  0  0  0  0  0  0  0  0  0  0  0
   45.1850   49.0800   17.3440 C   0  0  0  0  0  0  0  0  0  0  0  0
   46.2490   50.1290   17.5240 C   0  0  0  0  0  0  0  0  0  0  0  0
   47.1420   50.1420   16.2670 C   0  0  0  0  0  0  0  0  0  0  0  0
   49.4840   50.4290   17.8420 N   0  0  0  0  0  0  0  0  0  0  0  0
   48.9940   49.2200   17.5030 C   0  0  0  0  0  0  0  0  0  0  0  0
   49.2490   48.2500   18.1850 O   0  0  0  0  0  0  0  0  0  0  0  0
   49.3190   51.5660   16.9330 C   0  0  0  0  0  0  0  0  0  0  0  0
   49.0380   52.8330   17.7450 C   0  0  0  0  0  0  0  0  0  0  0  0
   50.1820   50.6060   19.1170 C   0  0  0  0  0  0  0  0  0  0  0  0
   51.6940   50.5770   18.8790 C   0  0  0  0  0  0  0  0  0  0  0  0
   52.6750   52.8670   18.6880 C   0  0  0  0  0  0  0  0  0  0  0  0
   52.3540   51.7220   19.6500 C   0  0  0  0  0  0  0  0  0  0  0  0
   48.9970   49.1980   15.0520 C   0  0  0  0  0  0  0  0  0  0  0  0
   48.5590   49.8280   14.0130 N   0  0  0  0  0  0  0  0  0  0  0  0
   50.2560   48.6410   15.0400 N   0  0  0  0  0  0  0  0  0  0  0  0
   50.5090   47.9990   15.7220 H   0  0  0  0  0  0  0  0  0  0  0  0
   50.8910   48.8900   14.3500 H   0  0  0  0  0  0  0  0  0  0  0  0
   49.3740   49.9450   12.8600 O   0  0  0  0  0  0  0  0  0  0  0  0
   48.8780   50.0210   12.0330 H   0  0  0  0  0  0  0  0  0  0  0  0
  1  2  1  0  0  0  0
  1  9  1  0  0  0  0
  2  3  1  0  0  0  0
  3  4  1  0  0  0  0
  5  6  1  0  0  0  0
  5  4  1  0  0  0  0
  7  1  1  0  0  0  0
  7  6  1  0  0  0  0
  8 13  1  0  0  0  0
  9  8  1  0  0  0  0
  9 10  2  0  0  0  0
 11 12  1  0  0  0  0
 11  8  1  0  0  0  0
 14 13  1  0  0  0  0
 14 16  1  0  0  0  0
 15 16  1  0  0  0  0
 17  1  1  0  0  0  0
 18 17  2  0  0  0  0
 19 17  1  0  0  0  0
 19 20  1  0  0  0  0
 21 19  1  0  0  0  0
 22 18  1  0  0  0  0
 23 22  1  0  0  0  0
M  END
>  <MODEL>
5

>  <REMARK>
  Name = ZINC44784236
                            x       y       z     vdW  Elec       q    Type
                         _______ _______ _______ _____ _____    ______ ____

>  <TORSDO>
F 8

>  <minimizedAffinity>
-6.2262187361116315

$$$$
ZINC44784236
 OpenBabel10211213003D

 23 23  0  0  0  0  0  0  0  0999 V2000
   51.4940   54.0410   20.9720 C   0  0  0  0  0  0  0  0  0  0  0  0
   52.5870   54.5380   20.0060 C   0  0  0  0  0  0  0  0  0  0  0  0
   52.0960   55.7890   19.3290 C   0  0  0  0  0  0  0  0  0  0  0  0
   52.5540   57.0700   20.0510 C   0  0  0  0  0  0  0  0  0  0  0  0
   52.4580   56.9580   21.5840 C   0  0  0  0  0  0  0  0  0  0  0  0
   51.1940   56.2750   22.0340 C   0  0  0  0  0  0  0  0  0  0  0  0
   51.4900   54.7750   22.2290 C   0  0  0  0  0  0  0  0  0  0  0  0
   49.8610   53.5030   19.1930 N   0  0  0  0  0  0  0  0  0  0  0  0
   50.1490   54.2000   20.3100 C   0  0  0  0  0  0  0  0  0  0  0  0
   49.3260   54.9550   20.7830 O   0  0  0  0  0  0  0  0  0  0  0  0
   50.9070   52.7230   18.5270 C   0  0  0  0  0  0  0  0  0  0  0  0
   50.3930   51.3080   18.2540 C   0  0  0  0  0  0  0  0  0  0  0  0
   48.5030   53.5270   18.6440 C   0  0  0  0  0  0  0  0  0  0  0  0
   48.5220   54.1990   17.2690 C   0  0  0  0  0  0  0  0  0  0  0  0
   47.1930   52.1040   16.9750 C   0  0  0  0  0  0  0  0  0  0  0  0
   47.6540   53.3960   16.2980 C   0  0  0  0  0  0  0  0  0  0  0  0
   51.7250   52.5810   21.2600 C   0  0  0  0  0  0  0  0  0  0  0  0
   52.7280   51.9680   20.7240 N   0  0  0  0  0  0  0  0  0  0  0  0
   50.8670   51.8990   22.0930 N   0  0  0  0  0  0  0  0  0  0  0  0
   50.5440   51.0190   21.8420 H   0  0  0  0  0  0  0  0  0  0  0  0
   50.5840   52.2970   22.9310 H   0  0  0  0  0  0  0  0  0  0  0  0
   52.9460   50.5940   20.9940 O   0  0  0  0  0  0  0  0  0  0  0  0
   52.2940   50.2030   21.5920 H   0  0  0  0  0  0  0  0  0  0  0  0
  1 17  1  0  0  0  0
  1  7  1  0  0  0  0
  2  1  1  0  0  0  0
  3  2  1  0  0  0  0
  3  4  1  0  0  0  0
  4  5  1  0  0  0  0
  5  6  1  0  0  0  0
  6  7  1  0  0  0  0
  8  9  1  0  0  0  0
  9 10  2  0  0  0  0
  9  1  1  0  0  0  0
 11  8  1  0  0  0  0
 12 11  1  0  0  0  0
 13  8  1  0  0  0  0
 14 13  1  0  0  0  0
 16 15  1  0  0  0  0
 16 14  1  0  0  0  0
 17 19  1  0  0  0  0
 18 22  1  0  0  0  0
 18 17  2  0  0  0  0
 19 21  1  0  0  0  0
 20 19  1  0  0  0  0
 22 23  1  0  0  0  0
M  END
>  <MODEL>
6

>  <REMARK>
  Name = ZINC44784236
                            x       y       z     vdW  Elec       q    Type
                         _______ _______ _______ _____ _____    ______ ____

>  <TORSDO>
F 8

>  <minimizedAffinity>
-6.1838222045156206

$$$$
ZINC44784236
 OpenBabel10211213003D

 23 23  0  0  0  0  0  0  0  0999 V2000
   51.6460   51.3790   19.4360 C   0  0  0  0  0  0  0  0  0  0  0  0
   51.2040   52.7390   18.8590 C   0  0  0  0  0  0  0  0  0  0  0  0
   49.9760   53.1960   19.5990 C   0  0  0  0  0  0  0  0  0  0  0  0
   50.3100   54.1280   20.7790 C   0  0  0  0  0  0  0  0  0  0  0  0
   51.5390   53.6590   21.5810 C   0  0  0  0  0  0  0  0  0  0  0  0
   51.5510   52.1690   21.7970 C   0  0  0  0  0  0  0  0  0  0  0  0
   52.3910   51.5190   20.6780 C   0  0  0  0  0  0  0  0  0  0  0  0
   49.5710   50.2610   18.6840 N   0  0  0  0  0  0  0  0  0  0  0  0
   50.4220   50.5370   19.6920 C   0  0  0  0  0  0  0  0  0  0  0  0
   50.2040   50.1080   20.8050 O   0  0  0  0  0  0  0  0  0  0  0  0
   49.7390   50.9140   17.3840 C   0  0  0  0  0  0  0  0  0  0  0  0
   48.3860   51.4370   16.8950 C   0  0  0  0  0  0  0  0  0  0  0  0
   48.4760   49.3100   18.8900 C   0  0  0  0  0  0  0  0  0  0  0  0
   48.6180   48.1490   17.9030 C   0  0  0  0  0  0  0  0  0  0  0  0
   46.1700   48.6320   18.0270 C   0  0  0  0  0  0  0  0  0  0  0  0
   47.2300   47.6900   17.4530 C   0  0  0  0  0  0  0  0  0  0  0  0
   52.5150   50.6800   18.4230 C   0  0  0  0  0  0  0  0  0  0  0  0
   52.6160   51.1510   17.2240 N   0  0  0  0  0  0  0  0  0  0  0  0
   53.1990   49.5370   18.7740 N   0  0  0  0  0  0  0  0  0  0  0  0
   54.1670   49.5160   18.7190 H   0  0  0  0  0  0  0  0  0  0  0  0
   52.7130   48.7540   19.0770 H   0  0  0  0  0  0  0  0  0  0  0  0
   53.4330   50.4930   16.2720 O   0  0  0  0  0  0  0  0  0  0  0  0
   53.1900   49.5700   16.1170 H   0  0  0  0  0  0  0  0  0  0  0  0
  1  9  1  0  0  0  0
  1  7  1  0  0  0  0
  2  1  1  0  0  0  0
  2  3  1  0  0  0  0
  3  4  1  0  0  0  0
  4  5  1  0  0  0  0
  5  6  1  0  0  0  0
  7  6  1  0  0  0  0
  8 13  1  0  0  0  0
  8  9  1  0  0  0  0
  9 10  2  0  0  0  0
 11  8  1  0  0  0  0
 12 11  1  0  0  0  0
 14 13  1  0  0  0  0
 16 14  1  0  0  0  0
 16 15  1  0  0  0  0
 17 19  1  0  0  0  0
 17  1  1  0  0  0  0
 18 17  2  0  0  0  0
 19 21  1  0  0  0  0
 20 19  1  0  0  0  0
 22 18  1  0  0  0  0
 23 22  1  0  0  0  0
M  END
>  <MODEL>
7

>  <REMARK>
  Name = ZINC44784236
                            x       y       z     vdW  Elec       q    Type
                         _______ _______ _______ _____ _____    ______ ____

>  <TORSDO>
F 8

>  <minimizedAffinity>
-6.0517254239207805

$$$$
ZINC44784236
 OpenBabel10211213003D

 23 23  0  0  0  0  0  0  0  0999 V2000
   52.0880   54.5710   20.0840 C   0  0  0  0  0  0  0  0  0  0  0  0
   53.2100   55.6260   20.1650 C   0  0  0  0  0  0  0  0  0  0  0  0
   52.5850   56.9700   20.4190 C   0  0  0  0  0  0  0  0  0  0  0  0
   52.5360   57.3250   21.9170 C   0  0  0  0  0  0  0  0  0  0  0  0
   52.1310   56.1300   22.8000 C   0  0  0  0  0  0  0  0  0  0  0  0
   51.0100   55.3240   22.2000 C   0  0  0  0  0  0  0  0  0  0  0  0
   51.6210   54.1560   21.3990 C   0  0  0  0  0  0  0  0  0  0  0  0
   49.7830   54.4500   19.1940 N   0  0  0  0  0  0  0  0  0  0  0  0
   50.9290   55.1500   19.3140 C   0  0  0  0  0  0  0  0  0  0  0  0
   51.0270   56.2450   18.8030 O   0  0  0  0  0  0  0  0  0  0  0  0
   49.7180   53.0640   19.6630 C   0  0  0  0  0  0  0  0  0  0  0  0
   49.4610   52.1340   18.4760 C   0  0  0  0  0  0  0  0  0  0  0  0
   48.6020   55.0760   18.5930 C   0  0  0  0  0  0  0  0  0  0  0  0
   47.7300   55.6820   19.6950 C   0  0  0  0  0  0  0  0  0  0  0  0
   48.4110   57.6590   21.0620 C   0  0  0  0  0  0  0  0  0  0  0  0
   47.8940   57.2030   19.6960 C   0  0  0  0  0  0  0  0  0  0  0  0
   52.6070   53.3630   19.3480 C   0  0  0  0  0  0  0  0  0  0  0  0
   52.8130   53.4230   18.0740 N   0  0  0  0  0  0  0  0  0  0  0  0
   52.8600   52.1960   20.0330 N   0  0  0  0  0  0  0  0  0  0  0  0
   53.5370   51.5810   19.7090 H   0  0  0  0  0  0  0  0  0  0  0  0
   52.3610   51.9880   20.8380 H   0  0  0  0  0  0  0  0  0  0  0  0
   53.3010   52.2870   17.3810 O   0  0  0  0  0  0  0  0  0  0  0  0
   53.8480   52.5000   16.6130 H   0  0  0  0  0  0  0  0  0  0  0  0
  1  2  1  0  0  0  0
  1  7  1  0  0  0  0
  2  3  1  0  0  0  0
  3  4  1  0  0  0  0
  4  5  1  0  0  0  0
  6  5  1  0  0  0  0
  7  6  1  0  0  0  0
  8  9  1  0  0  0  0
  8 11  1  0  0  0  0
  9  1  1  0  0  0  0
 10  9  2  0  0  0  0
 12 11  1  0  0  0  0
 13  8  1  0  0  0  0
 13 14  1  0  0  0  0
 14 16  1  0  0  0  0
 16 15  1  0  0  0  0
 17 19  1  0  0  0  0
 17  1  1  0  0  0  0
 18 17  2  0  0  0  0
 19 21  1  0  0  0  0
 20 19  1  0  0  0  0
 22 18  1  0  0  0  0
 23 22  1  0  0  0  0
M  END
>  <MODEL>
8

>  <REMARK>
  Name = ZINC44784236
                            x       y       z     vdW  Elec       q    Type
                         _______ _______ _______ _____ _____    ______ ____

>  <TORSDO>
F 8

>  <minimizedAffinity>
-5.8380667957109669

$$$$
ZINC44784236
 OpenBabel10211213003D

 23 23  0  0  0  0  0  0  0  0999 V2000
   51.5310   54.4370   21.0170 C   0  0  0  0  0  0  0  0  0  0  0  0
   52.6660   54.9310   20.0980 C   0  0  0  0  0  0  0  0  0  0  0  0
   52.2920   56.2860   19.5620 C   0  0  0  0  0  0  0  0  0  0  0  0
   52.8680   57.4350   20.4100 C   0  0  0  0  0  0  0  0  0  0  0  0
   52.7630   57.1710   21.9240 C   0  0  0  0  0  0  0  0  0  0  0  0
   51.4410   56.5640   22.3120 C   0  0  0  0  0  0  0  0  0  0  0  0
   51.5970   55.0300   22.3450 C   0  0  0  0  0  0  0  0  0  0  0  0
   49.8270   54.1960   19.2400 N   0  0  0  0  0  0  0  0  0  0  0  0
   50.2070   54.7890   20.3900 C   0  0  0  0  0  0  0  0  0  0  0  0
   49.4830   55.6040   20.9200 O   0  0  0  0  0  0  0  0  0  0  0  0
   50.7680   53.3410   18.5120 C   0  0  0  0  0  0  0  0  0  0  0  0
   50.0600   52.0540   18.0820 C   0  0  0  0  0  0  0  0  0  0  0  0
   48.4750   54.4090   18.7180 C   0  0  0  0  0  0  0  0  0  0  0  0
   48.5420   55.3170   17.4870 C   0  0  0  0  0  0  0  0  0  0  0  0
   47.6880   57.5350   16.7180 C   0  0  0  0  0  0  0  0  0  0  0  0
   48.2690   56.7630   17.9050 C   0  0  0  0  0  0  0  0  0  0  0  0
   51.6260   52.9390   21.1470 C   0  0  0  0  0  0  0  0  0  0  0  0
   50.7500   52.2940   21.8440 N   0  0  0  0  0  0  0  0  0  0  0  0
   52.6480   52.2580   20.5250 N   0  0  0  0  0  0  0  0  0  0  0  0
   52.5800   51.2990   20.3910 H   0  0  0  0  0  0  0  0  0  0  0  0
   53.4350   52.7350   20.2200 H   0  0  0  0  0  0  0  0  0  0  0  0
   50.8390   50.8860   21.9660 O   0  0  0  0  0  0  0  0  0  0  0  0
   49.9840   50.4350   21.9540 H   0  0  0  0  0  0  0  0  0  0  0  0
  1 17  1  0  0  0  0
  1  7  1  0  0  0  0
  2  1  1  0  0  0  0
  3  2  1  0  0  0  0
  3  4  1  0  0  0  0
  4  5  1  0  0  0  0
  5  6  1  0  0  0  0
  6  7  1  0  0  0  0
  8  9  1  0  0  0  0
  9 10  2  0  0  0  0
  9  1  1  0  0  0  0
 11  8  1  0  0  0  0
 12 11  1  0  0  0  0
 13  8  1  0  0  0  0
 14 16  1  0  0  0  0
 14 13  1  0  0  0  0
 15 16  1  0  0  0  0
 17 18  2  0  0  0  0
 18 22  1  0  0  0  0
 19 17  1  0  0  0  0
 20 19  1  0  0  0  0
 21 19  1  0  0  0  0
 23 22  1  0  0  0  0
M  END
>  <MODEL>
9

>  <REMARK>
  Name = ZINC44784236
                            x       y       z     vdW  Elec       q    Type
                         _______ _______ _______ _____ _____    ______ ____

>  <TORSDO>
F 8

>  <minimizedAffinity>
-5.8044750023163214

$$$$
ZINC28852227
 OpenBabel10211213023D

 27 28  0  0  1  0  0  0  0  0999 V2000
   50.2760   51.4810   17.9320 C   0  0  0  0  0  0  0  0  0  0  0  0
   51.3500   50.9770   17.6670 O   0  0  0  0  0  0  0  0  0  0  0  0
   49.0600   50.6500   17.9630 C   0  0  0  0  0  0  0  0  0  0  0  0
   49.0190   49.4970   18.7540 C   0  0  0  0  0  0  0  0  0  0  0  0
   47.8820   48.7220   18.7800 C   0  0  0  0  0  0  0  0  0  0  0  0
   46.7740   49.0850   18.0200 C   0  0  0  0  0  0  0  0  0  0  0  0
   46.8130   50.2280   17.2270 C   0  0  0  0  0  0  0  0  0  0  0  0
   47.9440   51.0100   17.2010 C   0  0  0  0  0  0  0  0  0  0  0  0
   45.6230   48.2980   18.0500 N   0  0  0  0  0  0  0  0  0  0  0  0
   44.8070   48.5430   18.7450 H   0  0  0  0  0  0  0  0  0  0  0  0
   45.5120   47.2350   17.2270 C   0  0  0  0  0  0  0  0  0  0  0  0
   44.4400   46.4240   17.3150 N   0  0  0  0  0  0  0  0  0  0  0  0
   43.6550   46.6290   18.0580 H   0  0  0  0  0  0  0  0  0  0  0  0
   44.3480   45.5580   16.6440 H   0  0  0  0  0  0  0  0  0  0  0  0
   46.3800   47.0090   16.4060 O   0  0  0  0  0  0  0  0  0  0  0  0
   50.1990   52.8000   18.1980 O   0  0  0  0  0  0  0  0  0  0  0  0
   50.6740   52.6650   20.5820 C   0  0  0  0  0  0  0  0  0  0  0  0
   51.0570   53.3130   19.2500 C   0  0  2  0  0  0  0  0  0  0  0  0
   50.8910   54.8070   19.3520 C   0  0  0  0  0  0  0  0  0  0  0  0
   49.8990   55.3260   20.1010 N   0  0  0  0  0  0  0  0  0  0  0  0
   49.2090   54.6590   20.6390 H   0  0  0  0  0  0  0  0  0  0  0  0
   51.6520   55.5430   18.7590 O   0  0  0  0  0  0  0  0  0  0  0  0
   49.7380   56.7790   20.1990 C   0  0  0  0  0  0  0  0  0  0  0  0
   49.6970   57.2060   21.6820 C   0  0  0  0  0  0  0  0  0  0  0  0
   48.6570   58.3550   21.7170 C   0  0  0  0  0  0  0  0  0  0  0  0
   47.5820   57.8740   20.7100 C   0  0  0  0  0  0  0  0  0  0  0  0
   48.3940   57.2030   19.5820 C   0  0  0  0  0  0  0  0  0  0  0  0
  1  3  1  0  0  0  0
  1 16  1  0  0  0  0
  2  1  2  0  0  0  0
  3  4  2  0  0  0  0
  4  5  1  0  0  0  0
  6  9  1  0  0  0  0
  6  5  2  0  0  0  0
  7  6  1  0  0  0  0
  8  7  2  0  0  0  0
  8  3  1  0  0  0  0
  9 10  1  0  0  0  0
 11 12  1  0  0  0  0
 11  9  1  0  0  0  0
 12 13  1  0  0  0  0
 14 12  1  0  0  0  0
 15 11  2  0  0  0  0
 18 16  1  1  0  0  0
 18 19  1  0  0  0  0
 18 17  1  0  0  0  0
 19 20  1  0  0  0  0
 20 23  1  0  0  0  0
 20 21  1  0  0  0  0
 22 19  2  0  0  0  0
 23 24  1  0  0  0  0
 24 25  1  0  0  0  0
 26 25  1  0  0  0  0
 27 23  1  0  0  0  0
 27 26  1  0  0  0  0
M  END
>  <MODEL>
1

>  <REMARK>
  Name = ZINC28852227
                            x       y       z     vdW  Elec       q    Type
                         _______ _______ _______ _____ _____    ______ ____

>  <TORSDO>
F 6

>  <minimizedAffinity>
-8.4836068348398701

$$$$
ZINC28852227
 OpenBabel10211213023D

 27 28  0  0  1  0  0  0  0  0999 V2000
   51.9130   51.6780   20.3580 C   0  0  0  0  0  0  0  0  0  0  0  0
   52.9670   51.0740   20.3370 O   0  0  0  0  0  0  0  0  0  0  0  0
   51.8890   53.1050   20.7270 C   0  0  0  0  0  0  0  0  0  0  0  0
   52.1560   54.0830   19.7640 C   0  0  0  0  0  0  0  0  0  0  0  0
   52.1340   55.4140   20.1120 C   0  0  0  0  0  0  0  0  0  0  0  0
   51.8450   55.7870   21.4210 C   0  0  0  0  0  0  0  0  0  0  0  0
   51.5840   54.8170   22.3840 C   0  0  0  0  0  0  0  0  0  0  0  0
   51.6000   53.4850   22.0410 C   0  0  0  0  0  0  0  0  0  0  0  0
   51.8220   57.1370   21.7700 N   0  0  0  0  0  0  0  0  0  0  0  0
   50.8610   57.6610   21.8780 H   0  0  0  0  0  0  0  0  0  0  0  0
   52.9780   57.8000   21.9750 C   0  0  0  0  0  0  0  0  0  0  0  0
   52.9610   59.1230   22.2270 N   0  0  0  0  0  0  0  0  0  0  0  0
   52.0030   59.6630   22.2660 H   0  0  0  0  0  0  0  0  0  0  0  0
   53.9040   59.6640   22.3940 H   0  0  0  0  0  0  0  0  0  0  0  0
   54.0370   57.2030   21.9320 O   0  0  0  0  0  0  0  0  0  0  0  0
   50.7670   51.0430   20.0420 O   0  0  0  0  0  0  0  0  0  0  0  0
   49.7150   52.2150   18.1850 C   0  0  0  0  0  0  0  0  0  0  0  0
   50.4350   50.9420   18.6330 C   0  0  2  0  0  0  0  0  0  0  0  0
   49.5380   49.7520   18.4110 C   0  0  0  0  0  0  0  0  0  0  0  0
   48.5220   49.8290   17.5290 N   0  0  0  0  0  0  0  0  0  0  0  0
   48.3470   50.7600   16.9710 H   0  0  0  0  0  0  0  0  0  0  0  0
   49.7300   48.7250   19.0270 O   0  0  0  0  0  0  0  0  0  0  0  0
   47.6490   48.6710   17.3150 C   0  0  0  0  0  0  0  0  0  0  0  0
   47.0970   48.6870   15.8740 C   0  0  0  0  0  0  0  0  0  0  0  0
   45.6450   48.1650   16.0180 C   0  0  0  0  0  0  0  0  0  0  0  0
   45.1820   48.8080   17.3500 C   0  0  0  0  0  0  0  0  0  0  0  0
   46.4320   48.7480   18.2530 C   0  0  0  0  0  0  0  0  0  0  0  0
  1  3  1  0  0  0  0
  2  1  2  0  0  0  0
  3  8  2  0  0  0  0
  4  5  2  0  0  0  0
  4  3  1  0  0  0  0
  5  6  1  0  0  0  0
  6  9  1  0  0  0  0
  6  7  2  0  0  0  0
  8  7  1  0  0  0  0
  9 10  1  0  0  0  0
  9 11  1  0  0  0  0
 11 12  1  0  0  0  0
 12 13  1  0  0  0  0
 12 14  1  0  0  0  0
 15 11  2  0  0  0  0
 16  1  1  0  0  0  0
 18 17  1  1  0  0  0
 18 16  1  0  0  0  0
 19 18  1  0  0  0  0
 19 22  2  0  0  0  0
 20 19  1  0  0  0  0
 21 20  1  0  0  0  0
 23 20  1  0  0  0  0
 23 27  1  0  0  0  0
 24 25  1  0  0  0  0
 24 23  1  0  0  0  0
 25 26  1  0  0  0  0
 26 27  1  0  0  0  0
M  END
>  <MODEL>
2

>  <REMARK>
  Name = ZINC28852227
                            x       y       z     vdW  Elec       q    Type
                         _______ _______ _______ _____ _____    ______ ____

>  <TORSDO>
F 6

>  <minimizedAffinity>
-8.3482268076494694

$$$$
ZINC28852227
 OpenBabel10211213023D

 27 28  0  0  1  0  0  0  0  0999 V2000
   49.5930   49.7460   18.3610 C   0  0  0  0  0  0  0  0  0  0  0  0
   50.2710   49.4730   19.3320 O   0  0  0  0  0  0  0  0  0  0  0  0
   48.4890   48.8570   17.9600 C   0  0  0  0  0  0  0  0  0  0  0  0
   47.3490   48.7470   18.7630 C   0  0  0  0  0  0  0  0  0  0  0  0
   46.3200   47.9150   18.3870 C   0  0  0  0  0  0  0  0  0  0  0  0
   46.4120   47.1830   17.2060 C   0  0  0  0  0  0  0  0  0  0  0  0
   47.5470   47.2850   16.4070 C   0  0  0  0  0  0  0  0  0  0  0  0
   48.5770   48.1190   16.7750 C   0  0  0  0  0  0  0  0  0  0  0  0
   45.3670   46.3420   16.8270 N   0  0  0  0  0  0  0  0  0  0  0  0
   45.3630   45.2900   17.1490 H   0  0  0  0  0  0  0  0  0  0  0  0
   44.3620   46.8170   16.0640 C   0  0  0  0  0  0  0  0  0  0  0  0
   43.3980   45.9850   15.6250 N   0  0  0  0  0  0  0  0  0  0  0  0
   43.4310   44.9170   15.8890 H   0  0  0  0  0  0  0  0  0  0  0  0
   42.5780   46.3720   15.0020 H   0  0  0  0  0  0  0  0  0  0  0  0
   44.3270   47.9970   15.7710 O   0  0  0  0  0  0  0  0  0  0  0  0
   49.8510   50.8630   17.6530 O   0  0  0  0  0  0  0  0  0  0  0  0
   48.2810   52.1540   16.3130 C   0  0  0  0  0  0  0  0  0  0  0  0
   48.8620   51.9240   17.7090 C   0  0  2  0  0  0  0  0  0  0  0  0
   49.5120   53.1920   18.1980 C   0  0  0  0  0  0  0  0  0  0  0  0
   48.7500   54.2310   18.5930 N   0  0  0  0  0  0  0  0  0  0  0  0
   47.6540   54.1540   18.5580 H   0  0  0  0  0  0  0  0  0  0  0  0
   50.7210   53.2780   18.2370 O   0  0  0  0  0  0  0  0  0  0  0  0
   49.3830   55.4650   19.0680 C   0  0  0  0  0  0  0  0  0  0  0  0
   49.6550   55.3680   20.5840 C   0  0  0  0  0  0  0  0  0  0  0  0
   49.3780   56.7980   21.1110 C   0  0  0  0  0  0  0  0  0  0  0  0
   48.1570   57.2430   20.2680 C   0  0  0  0  0  0  0  0  0  0  0  0
   48.4310   56.6570   18.8670 C   0  0  0  0  0  0  0  0  0  0  0  0
  1  2  2  0  0  0  0
  3  1  1  0  0  0  0
  3  4  2  0  0  0  0
  5  4  1  0  0  0  0
  6  5  2  0  0  0  0
  7  8  2  0  0  0  0
  7  6  1  0  0  0  0
  8  3  1  0  0  0  0
  9 10  1  0  0  0  0
  9  6  1  0  0  0  0
 11  9  1  0  0  0  0
 12 13  1  0  0  0  0
 12 11  1  0  0  0  0
 14 12  1  0  0  0  0
 15 11  2  0  0  0  0
 16 18  1  0  0  0  0
 16  1  1  0  0  0  0
 18 17  1  6  0  0  0
 18 19  1  0  0  0  0
 19 22  2  0  0  0  0
 19 20  1  0  0  0  0
 20 23  1  0  0  0  0
 21 20  1  0  0  0  0
 23 24  1  0  0  0  0
 24 25  1  0  0  0  0
 26 25  1  0  0  0  0
 27 23  1  0  0  0  0
 27 26  1  0  0  0  0
M  END
>  <MODEL>
3

>  <REMARK>
  Name = ZINC28852227
                            x       y       z     vdW  Elec       q    Type
                         _______ _______ _______ _____ _____    ______ ____

>  <TORSDO>
F 6

>  <minimizedAffinity>
-8.3235956791080756

$$$$
ZINC28852227
 OpenBabel10211213023D

 27 28  0  0  1  0  0  0  0  0999 V2000
   50.1580   51.0390   18.3660 C   0  0  0  0  0  0  0  0  0  0  0  0
   51.0760   50.8600   17.5900 O   0  0  0  0  0  0  0  0  0  0  0  0
   48.8600   50.3790   18.1380 C   0  0  0  0  0  0  0  0  0  0  0  0
   47.9160   50.9640   17.2880 C   0  0  0  0  0  0  0  0  0  0  0  0
   46.7050   50.3460   17.0770 C   0  0  0  0  0  0  0  0  0  0  0  0
   46.4190   49.1400   17.7110 C   0  0  0  0  0  0  0  0  0  0  0  0
   47.3530   48.5580   18.5630 C   0  0  0  0  0  0  0  0  0  0  0  0
   48.5680   49.1680   18.7730 C   0  0  0  0  0  0  0  0  0  0  0  0
   45.1910   48.5160   17.4950 N   0  0  0  0  0  0  0  0  0  0  0  0
   44.3210   48.7870   18.1110 H   0  0  0  0  0  0  0  0  0  0  0  0
   45.0700   47.5800   16.5320 C   0  0  0  0  0  0  0  0  0  0  0  0
   43.9080   46.9150   16.3810 N   0  0  0  0  0  0  0  0  0  0  0  0
   43.0580   47.1370   17.0420 H   0  0  0  0  0  0  0  0  0  0  0  0
   43.8090   46.1520   15.5950 H   0  0  0  0  0  0  0  0  0  0  0  0
   46.0100   47.3360   15.8010 O   0  0  0  0  0  0  0  0  0  0  0  0
   50.3280   51.8410   19.4360 O   0  0  0  0  0  0  0  0  0  0  0  0
   51.9220   50.6050   20.7990 C   0  0  0  0  0  0  0  0  0  0  0  0
   51.6570   51.8930   20.0180 C   0  0  2  0  0  0  0  0  0  0  0  0
   51.7530   53.0730   20.9490 C   0  0  0  0  0  0  0  0  0  0  0  0
   51.7400   54.3260   20.4540 N   0  0  0  0  0  0  0  0  0  0  0  0
   51.6590   54.4870   19.3690 H   0  0  0  0  0  0  0  0  0  0  0  0
   51.8410   52.8950   22.1460 O   0  0  0  0  0  0  0  0  0  0  0  0
   51.8330   55.4740   21.3600 C   0  0  0  0  0  0  0  0  0  0  0  0
   50.4430   56.1200   21.5380 C   0  0  0  0  0  0  0  0  0  0  0  0
   50.7390   57.6400   21.6140 C   0  0  0  0  0  0  0  0  0  0  0  0
   51.8800   57.8180   20.5800 C   0  0  0  0  0  0  0  0  0  0  0  0
   52.7460   56.5530   20.7520 C   0  0  0  0  0  0  0  0  0  0  0  0
  1 16  1  0  0  0  0
  2  1  2  0  0  0  0
  3  1  1  0  0  0  0
  3  8  2  0  0  0  0
  4  3  1  0  0  0  0
  5  4  2  0  0  0  0
  5  6  1  0  0  0  0
  6  7  2  0  0  0  0
  7  8  1  0  0  0  0
  9  6  1  0  0  0  0
  9 10  1  0  0  0  0
 11  9  1  0  0  0  0
 12 11  1  0  0  0  0
 12 13  1  0  0  0  0
 14 12  1  0  0  0  0
 15 11  2  0  0  0  0
 18 16  1  1  0  0  0
 18 17  1  0  0  0  0
 18 19  1  0  0  0  0
 19 22  2  0  0  0  0
 20 19  1  0  0  0  0
 20 23  1  0  0  0  0
 21 20  1  0  0  0  0
 23 24  1  0  0  0  0
 24 25  1  0  0  0  0
 26 27  1  0  0  0  0
 26 25  1  0  0  0  0
 27 23  1  0  0  0  0
M  END
>  <MODEL>
4

>  <REMARK>
  Name = ZINC28852227
                            x       y       z     vdW  Elec       q    Type
                         _______ _______ _______ _____ _____    ______ ____

>  <TORSDO>
F 6

>  <minimizedAffinity>
-7.9404068787442004

$$$$
ZINC28852227
 OpenBabel10211213023D

 27 28  0  0  1  0  0  0  0  0999 V2000
   49.9790   52.6600   18.4750 C   0  0  0  0  0  0  0  0  0  0  0  0
   48.8270   52.4910   18.1250 O   0  0  0  0  0  0  0  0  0  0  0  0
   50.3860   53.9410   19.0780 C   0  0  0  0  0  0  0  0  0  0  0  0
   49.4850   54.6630   19.8660 C   0  0  0  0  0  0  0  0  0  0  0  0
   49.8670   55.8600   20.4270 C   0  0  0  0  0  0  0  0  0  0  0  0
   51.1510   56.3530   20.2100 C   0  0  0  0  0  0  0  0  0  0  0  0
   52.0490   55.6400   19.4210 C   0  0  0  0  0  0  0  0  0  0  0  0
   51.6740   54.4400   18.8620 C   0  0  0  0  0  0  0  0  0  0  0  0
   51.5360   57.5650   20.7790 N   0  0  0  0  0  0  0  0  0  0  0  0
   51.1010   58.5070   20.4140 H   0  0  0  0  0  0  0  0  0  0  0  0
   52.4410   57.5830   21.7780 C   0  0  0  0  0  0  0  0  0  0  0  0
   52.8780   58.7590   22.2700 N   0  0  0  0  0  0  0  0  0  0  0  0
   52.4960   59.7040   21.8570 H   0  0  0  0  0  0  0  0  0  0  0  0
   53.6170   58.7750   23.0850 H   0  0  0  0  0  0  0  0  0  0  0  0
   52.8640   56.5390   22.2350 O   0  0  0  0  0  0  0  0  0  0  0  0
   50.8830   51.6730   18.3130 O   0  0  0  0  0  0  0  0  0  0  0  0
   52.5860   50.3680   19.4630 C   0  0  0  0  0  0  0  0  0  0  0  0
   51.1190   50.8010   19.4490 C   0  0  2  0  0  0  0  0  0  0  0  0
   50.2380   49.5830   19.3400 C   0  0  0  0  0  0  0  0  0  0  0  0
   49.5580   49.3430   18.2020 N   0  0  0  0  0  0  0  0  0  0  0  0
   49.6460   50.0340   17.3520 H   0  0  0  0  0  0  0  0  0  0  0  0
   50.1410   48.8200   20.2780 O   0  0  0  0  0  0  0  0  0  0  0  0
   48.7010   48.1580   18.0970 C   0  0  0  0  0  0  0  0  0  0  0  0
   48.6570   47.6660   16.6350 C   0  0  0  0  0  0  0  0  0  0  0  0
   47.1970   47.1870   16.4400 C   0  0  0  0  0  0  0  0  0  0  0  0
   46.3840   48.2330   17.2430 C   0  0  0  0  0  0  0  0  0  0  0  0
   47.2550   48.5190   18.4840 C   0  0  0  0  0  0  0  0  0  0  0  0
  1  3  1  0  0  0  0
  2  1  2  0  0  0  0
  3  4  1  0  0  0  0
  4  5  2  0  0  0  0
  6  5  1  0  0  0  0
  6  9  1  0  0  0  0
  7  6  2  0  0  0  0
  8  3  2  0  0  0  0
  8  7  1  0  0  0  0
  9 11  1  0  0  0  0
 10  9  1  0  0  0  0
 11 15  2  0  0  0  0
 11 12  1  0  0  0  0
 12 14  1  0  0  0  0
 13 12  1  0  0  0  0
 16  1  1  0  0  0  0
 18 16  1  6  0  0  0
 18 17  1  0  0  0  0
 19 18  1  0  0  0  0
 19 22  2  0  0  0  0
 20 19  1  0  0  0  0
 21 20  1  0  0  0  0
 23 20  1  0  0  0  0
 23 27  1  0  0  0  0
 24 23  1  0  0  0  0
 25 24  1  0  0  0  0
 25 26  1  0  0  0  0
 26 27  1  0  0  0  0
M  END
>  <MODEL>
5

>  <REMARK>
  Name = ZINC28852227
                            x       y       z     vdW  Elec       q    Type
                         _______ _______ _______ _____ _____    ______ ____

>  <TORSDO>
F 6

>  <minimizedAffinity>
-7.9168728030766609

$$$$
ZINC28852227
 OpenBabel10211213023D

 27 28  0  0  1  0  0  0  0  0999 V2000
   47.9960   50.7320   16.7070 C   0  0  0  0  0  0  0  0  0  0  0  0
   48.2850   51.4320   15.7560 O   0  0  0  0  0  0  0  0  0  0  0  0
   46.9940   49.6620   16.5570 C   0  0  0  0  0  0  0  0  0  0  0  0
   45.8630   49.6400   17.3790 C   0  0  0  0  0  0  0  0  0  0  0  0
   44.9300   48.6380   17.2370 C   0  0  0  0  0  0  0  0  0  0  0  0
   45.1120   47.6470   16.2770 C   0  0  0  0  0  0  0  0  0  0  0  0
   46.2400   47.6620   15.4620 C   0  0  0  0  0  0  0  0  0  0  0  0
   47.1730   48.6640   15.5950 C   0  0  0  0  0  0  0  0  0  0  0  0
   44.1650   46.6340   16.1350 N   0  0  0  0  0  0  0  0  0  0  0  0
   44.1520   45.7900   16.8410 H   0  0  0  0  0  0  0  0  0  0  0  0
   43.2650   46.6880   15.1330 C   0  0  0  0  0  0  0  0  0  0  0  0
   42.4060   45.6680   14.9430 N   0  0  0  0  0  0  0  0  0  0  0  0
   42.4380   44.7910   15.6070 H   0  0  0  0  0  0  0  0  0  0  0  0
   41.6710   45.7110   14.1260 H   0  0  0  0  0  0  0  0  0  0  0  0
   43.2290   47.6580   14.4000 O   0  0  0  0  0  0  0  0  0  0  0  0
   48.5920   50.9360   17.8990 O   0  0  0  0  0  0  0  0  0  0  0  0
   49.3660   48.9760   19.1190 C   0  0  0  0  0  0  0  0  0  0  0  0
   49.7620   50.1310   18.1970 C   0  0  2  0  0  0  0  0  0  0  0  0
   50.8000   50.9850   18.8790 C   0  0  0  0  0  0  0  0  0  0  0  0
   50.4200   52.0410   19.6240 N   0  0  0  0  0  0  0  0  0  0  0  0
   49.3530   52.2810   19.7340 H   0  0  0  0  0  0  0  0  0  0  0  0
   51.9780   50.7200   18.7570 O   0  0  0  0  0  0  0  0  0  0  0  0
   51.4300   52.8710   20.2870 C   0  0  0  0  0  0  0  0  0  0  0  0
   51.3000   52.7370   21.8190 C   0  0  0  0  0  0  0  0  0  0  0  0
   51.6030   54.1610   22.3500 C   0  0  0  0  0  0  0  0  0  0  0  0
   50.9300   55.0710   21.2930 C   0  0  0  0  0  0  0  0  0  0  0  0
   51.1950   54.3550   19.9530 C   0  0  0  0  0  0  0  0  0  0  0  0
  1 16  1  0  0  0  0
  2  1  2  0  0  0  0
  3  1  1  0  0  0  0
  3  4  2  0  0  0  0
  5  4  1  0  0  0  0
  6  5  2  0  0  0  0
  7  8  2  0  0  0  0
  7  6  1  0  0  0  0
  8  3  1  0  0  0  0
  9  6  1  0  0  0  0
  9 10  1  0  0  0  0
 11  9  1  0  0  0  0
 12 11  1  0  0  0  0
 12 13  1  0  0  0  0
 14 12  1  0  0  0  0
 15 11  2  0  0  0  0
 18 16  1  1  0  0  0
 18 19  1  0  0  0  0
 18 17  1  0  0  0  0
 19 20  1  0  0  0  0
 20 21  1  0  0  0  0
 20 23  1  0  0  0  0
 22 19  2  0  0  0  0
 23 24  1  0  0  0  0
 24 25  1  0  0  0  0
 26 25  1  0  0  0  0
 27 23  1  0  0  0  0
 27 26  1  0  0  0  0
M  END
>  <MODEL>
6

>  <REMARK>
  Name = ZINC28852227
                            x       y       z     vdW  Elec       q    Type
                         _______ _______ _______ _____ _____    ______ ____

>  <TORSDO>
F 6

>  <minimizedAffinity>
-7.8969342892424077

$$$$
ZINC28852227
 OpenBabel10211213023D

 27 28  0  0  1  0  0  0  0  0999 V2000
   49.4120   50.6530   18.1450 C   0  0  0  0  0  0  0  0  0  0  0  0
   50.2060   50.2720   18.9830 O   0  0  0  0  0  0  0  0  0  0  0  0
   48.2160   49.8470   17.8430 C   0  0  0  0  0  0  0  0  0  0  0  0
   47.5490   50.0110   16.6250 C   0  0  0  0  0  0  0  0  0  0  0  0
   46.4310   49.2580   16.3460 C   0  0  0  0  0  0  0  0  0  0  0  0
   45.9650   48.3330   17.2750 C   0  0  0  0  0  0  0  0  0  0  0  0
   46.6220   48.1710   18.4910 C   0  0  0  0  0  0  0  0  0  0  0  0
   47.7430   48.9170   18.7740 C   0  0  0  0  0  0  0  0  0  0  0  0
   44.8330   47.5710   16.9890 N   0  0  0  0  0  0  0  0  0  0  0  0
   43.8380   47.9310   17.2880 H   0  0  0  0  0  0  0  0  0  0  0  0
   44.9590   46.3920   16.3470 C   0  0  0  0  0  0  0  0  0  0  0  0
   43.8770   45.6150   16.1480 N   0  0  0  0  0  0  0  0  0  0  0  0
   42.8900   45.9420   16.5080 H   0  0  0  0  0  0  0  0  0  0  0  0
   43.9790   44.6530   15.6240 H   0  0  0  0  0  0  0  0  0  0  0  0
   46.0500   46.0300   15.9490 O   0  0  0  0  0  0  0  0  0  0  0  0
   49.6250   51.8140   17.4940 O   0  0  0  0  0  0  0  0  0  0  0  0
   48.2210   53.6950   16.8510 C   0  0  0  0  0  0  0  0  0  0  0  0
   48.9430   52.9900   18.0010 C   0  0  2  0  0  0  0  0  0  0  0  0
   49.9480   53.9290   18.6150 C   0  0  0  0  0  0  0  0  0  0  0  0
   49.5450   54.8640   19.4970 N   0  0  0  0  0  0  0  0  0  0  0  0
   48.4830   54.9430   19.7690 H   0  0  0  0  0  0  0  0  0  0  0  0
   51.1200   53.8430   18.3150 O   0  0  0  0  0  0  0  0  0  0  0  0
   50.5240   55.7780   20.0940 C   0  0  0  0  0  0  0  0  0  0  0  0
   50.9270   55.2760   21.4970 C   0  0  0  0  0  0  0  0  0  0  0  0
   51.0890   56.5720   22.3310 C   0  0  0  0  0  0  0  0  0  0  0  0
   49.9380   57.4650   21.8020 C   0  0  0  0  0  0  0  0  0  0  0  0
   49.8950   57.1690   20.2880 C   0  0  0  0  0  0  0  0  0  0  0  0
  1  2  2  0  0  0  0
  3  1  1  0  0  0  0
  3  8  2  0  0  0  0
  4  3  1  0  0  0  0
  5  4  2  0  0  0  0
  5  6  1  0  0  0  0
  6  7  2  0  0  0  0
  7  8  1  0  0  0  0
  9  6  1  0  0  0  0
  9 10  1  0  0  0  0
 11  9  1  0  0  0  0
 12 11  1  0  0  0  0
 12 13  1  0  0  0  0
 14 12  1  0  0  0  0
 15 11  2  0  0  0  0
 16 18  1  0  0  0  0
 16  1  1  0  0  0  0
 18 17  1  6  0  0  0
 18 19  1  0  0  0  0
 19 20  1  0  0  0  0
 20 21  1  0  0  0  0
 20 23  1  0  0  0  0
 22 19  2  0  0  0  0
 23 27  1  0  0  0  0
 23 24  1  0  0  0  0
 24 25  1  0  0  0  0
 26 25  1  0  0  0  0
 27 26  1  0  0  0  0
M  END
>  <MODEL>
7

>  <REMARK>
  Name = ZINC28852227
                            x       y       z     vdW  Elec       q    Type
                         _______ _______ _______ _____ _____    ______ ____

>  <TORSDO>
F 6

>  <minimizedAffinity>
-7.8447003336855294

$$$$
ZINC28852227
 OpenBabel10211213023D

 27 28  0  0  1  0  0  0  0  0999 V2000
   50.0660   55.9910   19.8980 C   0  0  0  0  0  0  0  0  0  0  0  0
   50.5640   57.0220   20.3050 O   0  0  0  0  0  0  0  0  0  0  0  0
   50.7830   54.7140   20.0560 C   0  0  0  0  0  0  0  0  0  0  0  0
   50.4160   53.8250   21.0710 C   0  0  0  0  0  0  0  0  0  0  0  0
   51.0890   52.6330   21.2180 C   0  0  0  0  0  0  0  0  0  0  0  0
   52.1340   52.3130   20.3570 C   0  0  0  0  0  0  0  0  0  0  0  0
   52.5070   53.1970   19.3490 C   0  0  0  0  0  0  0  0  0  0  0  0
   51.8350   54.3880   19.1940 C   0  0  0  0  0  0  0  0  0  0  0  0
   52.8130   51.1040   20.5070 N   0  0  0  0  0  0  0  0  0  0  0  0
   53.7050   51.0510   21.1490 H   0  0  0  0  0  0  0  0  0  0  0  0
   52.3770   50.0010   19.8660 C   0  0  0  0  0  0  0  0  0  0  0  0
   53.0810   48.8550   19.9410 N   0  0  0  0  0  0  0  0  0  0  0  0
   54.0120   48.8190   20.5270 H   0  0  0  0  0  0  0  0  0  0  0  0
   52.7250   47.9550   19.4180 H   0  0  0  0  0  0  0  0  0  0  0  0
   51.3480   50.0420   19.2190 O   0  0  0  0  0  0  0  0  0  0  0  0
   48.8570   56.0160   19.3020 O   0  0  0  0  0  0  0  0  0  0  0  0
   47.7790   57.5060   17.7070 C   0  0  0  0  0  0  0  0  0  0  0  0
   48.8180   56.4010   17.9030 C   0  0  2  0  0  0  0  0  0  0  0  0
   48.4460   55.2060   17.0630 C   0  0  0  0  0  0  0  0  0  0  0  0
   48.5600   53.9640   17.5710 N   0  0  0  0  0  0  0  0  0  0  0  0
   48.9250   53.8200   18.5980 H   0  0  0  0  0  0  0  0  0  0  0  0
   48.0430   55.3650   15.9300 O   0  0  0  0  0  0  0  0  0  0  0  0
   48.1980   52.8020   16.7530 C   0  0  0  0  0  0  0  0  0  0  0  0
   46.8450   52.2270   17.2240 C   0  0  0  0  0  0  0  0  0  0  0  0
   47.0140   50.6930   17.0760 C   0  0  0  0  0  0  0  0  0  0  0  0
   48.4840   50.4680   17.5100 C   0  0  0  0  0  0  0  0  0  0  0  0
   49.2390   51.6840   16.9350 C   0  0  0  0  0  0  0  0  0  0  0  0
  1  3  1  0  0  0  0
  1  2  2  0  0  0  0
  3  4  2  0  0  0  0
  4  5  1  0  0  0  0
  6  9  1  0  0  0  0
  6  5  2  0  0  0  0
  7  6  1  0  0  0  0
  8  7  2  0  0  0  0
  8  3  1  0  0  0  0
  9 10  1  0  0  0  0
 11 12  1  0  0  0  0
 11  9  1  0  0  0  0
 12 13  1  0  0  0  0
 14 12  1  0  0  0  0
 15 11  2  0  0  0  0
 16  1  1  0  0  0  0
 17 18  1  0  0  0  0
 18 19  1  1  0  0  0
 18 16  1  0  0  0  0
 19 20  1  0  0  0  0
 20 21  1  0  0  0  0
 22 19  2  0  0  0  0
 23 27  1  0  0  0  0
 23 24  1  0  0  0  0
 23 20  1  0  0  0  0
 25 24  1  0  0  0  0
 25 26  1  0  0  0  0
 27 26  1  0  0  0  0
M  END
>  <MODEL>
8

>  <REMARK>
  Name = ZINC28852227
                            x       y       z     vdW  Elec       q    Type
                         _______ _______ _______ _____ _____    ______ ____

>  <TORSDO>
F 6

>  <minimizedAffinity>
-7.8391186323222035

$$$$
ZINC28852227
 OpenBabel10211213023D

 27 28  0  0  1  0  0  0  0  0999 V2000
   51.7720   55.7040   20.2870 C   0  0  0  0  0  0  0  0  0  0  0  0
   52.7200   56.3980   19.9760 O   0  0  0  0  0  0  0  0  0  0  0  0
   51.9420   54.2490   20.4400 C   0  0  0  0  0  0  0  0  0  0  0  0
   52.4380   53.4850   19.3780 C   0  0  0  0  0  0  0  0  0  0  0  0
   52.5950   52.1260   19.5230 C   0  0  0  0  0  0  0  0  0  0  0  0
   52.2600   51.5100   20.7260 C   0  0  0  0  0  0  0  0  0  0  0  0
   51.7600   52.2650   21.7830 C   0  0  0  0  0  0  0  0  0  0  0  0
   51.6060   53.6260   21.6460 C   0  0  0  0  0  0  0  0  0  0  0  0
   52.4210   50.1330   20.8700 N   0  0  0  0  0  0  0  0  0  0  0  0
   53.3820   49.7250   21.2160 H   0  0  0  0  0  0  0  0  0  0  0  0
   51.3980   49.3020   20.5850 C   0  0  0  0  0  0  0  0  0  0  0  0
   51.5790   47.9680   20.6400 N   0  0  0  0  0  0  0  0  0  0  0  0
   52.5610   47.5570   20.9190 H   0  0  0  0  0  0  0  0  0  0  0  0
   50.7450   47.2890   20.4080 H   0  0  0  0  0  0  0  0  0  0  0  0
   50.3130   49.7560   20.2780 O   0  0  0  0  0  0  0  0  0  0  0  0
   50.5650   56.2680   20.4940 O   0  0  0  0  0  0  0  0  0  0  0  0
   48.7870   57.6340   19.5450 C   0  0  0  0  0  0  0  0  0  0  0  0
   49.7040   56.4280   19.3360 C   0  0  2  0  0  0  0  0  0  0  0  0
   48.8690   55.1870   19.1540 C   0  0  0  0  0  0  0  0  0  0  0  0
   49.1120   54.3560   18.1220 N   0  0  0  0  0  0  0  0  0  0  0  0
   49.9190   54.5840   17.4110 H   0  0  0  0  0  0  0  0  0  0  0  0
   47.9780   54.9360   19.9380 O   0  0  0  0  0  0  0  0  0  0  0  0
   48.2990   53.1500   17.9460 C   0  0  0  0  0  0  0  0  0  0  0  0
   49.1800   51.8920   18.0980 C   0  0  0  0  0  0  0  0  0  0  0  0
   48.6140   50.9020   17.0490 C   0  0  0  0  0  0  0  0  0  0  0  0
   48.2660   51.8290   15.8580 C   0  0  0  0  0  0  0  0  0  0  0  0
   47.7180   53.1090   16.5210 C   0  0  0  0  0  0  0  0  0  0  0  0
  1  3  1  0  0  0  0
  1 16  1  0  0  0  0
  2  1  2  0  0  0  0
  3  8  2  0  0  0  0
  4  5  2  0  0  0  0
  4  3  1  0  0  0  0
  5  6  1  0  0  0  0
  6  9  1  0  0  0  0
  6  7  2  0  0  0  0
  8  7  1  0  0  0  0
  9 10  1  0  0  0  0
 11 12  1  0  0  0  0
 11  9  1  0  0  0  0
 12 13  1  0  0  0  0
 14 12  1  0  0  0  0
 15 11  2  0  0  0  0
 18 19  1  1  0  0  0
 18 17  1  0  0  0  0
 18 16  1  0  0  0  0
 19 22  2  0  0  0  0
 20 19  1  0  0  0  0
 21 20  1  0  0  0  0
 23 24  1  0  0  0  0
 23 20  1  0  0  0  0
 25 24  1  0  0  0  0
 26 27  1  0  0  0  0
 26 25  1  0  0  0  0
 27 23  1  0  0  0  0
M  END
>  <MODEL>
9

>  <REMARK>
  Name = ZINC28852227
                            x       y       z     vdW  Elec       q    Type
                         _______ _______ _______ _____ _____    ______ ____

>  <TORSDO>
F 6

>  <minimizedAffinity>
-7.7182671441542254

$$$$
ZINC58948677
 OpenBabel10211213033D

 27 28  0  0  1  0  0  0  0  0999 V2000
   51.0260   50.1360   19.5440 C   0  0  0  0  0  0  0  0  0  0  0  0
   50.0660   49.2780   19.9080 C   0  0  0  0  0  0  0  0  0  0  0  0
   50.1840   48.5690   21.2340 C   0  0  0  0  0  0  0  0  0  0  0  0
   49.0010   49.0300   19.1290 O   0  0  0  0  0  0  0  0  0  0  0  0
   49.0430   49.3360   17.8210 C   0  0  0  0  0  0  0  0  0  0  0  0
   49.9550   50.2100   17.3270 C   0  0  0  0  0  0  0  0  0  0  0  0
   50.9550   50.8750   18.2350 C   0  0  1  0  0  0  0  0  0  0  0  0
   50.5380   52.3010   18.4890 C   0  0  1  0  0  0  0  0  0  0  0  0
   49.2040   52.6080   18.6830 C   0  0  0  0  0  0  0  0  0  0  0  0
   48.8210   53.9150   18.9140 C   0  0  0  0  0  0  0  0  0  0  0  0
   49.7730   54.9160   18.9530 C   0  0  0  0  0  0  0  0  0  0  0  0
   51.1070   54.6110   18.7600 C   0  0  0  0  0  0  0  0  0  0  0  0
   51.4900   53.3030   18.5330 C   0  0  0  0  0  0  0  0  0  0  0  0
   52.9450   52.9680   18.3270 C   0  0  0  0  0  0  0  0  0  0  0  0
   49.9640   50.5020   15.9510 C   0  0  0  0  0  0  0  0  0  0  0  0
   51.0290   50.1670   15.1980 N   0  0  0  0  0  0  0  0  0  0  0  0
   51.0660   50.4290   14.2640 H   0  0  0  0  0  0  0  0  0  0  0  0
   51.7600   49.6620   15.5880 H   0  0  0  0  0  0  0  0  0  0  0  0
   49.0080   51.0600   15.4400 O   0  0  0  0  0  0  0  0  0  0  0  0
   48.1430   48.7530   16.9670 N   0  0  0  0  0  0  0  0  0  0  0  0
   47.9190   47.8140   17.0670 H   0  0  0  0  0  0  0  0  0  0  0  0
   47.7300   49.2790   16.2650 H   0  0  0  0  0  0  0  0  0  0  0  0
   52.1270   50.3570   20.4080 C   0  0  0  0  0  0  0  0  0  0  0  0
   53.2500   50.0570   20.0510 O   0  0  0  0  0  0  0  0  0  0  0  0
   51.9290   50.9010   21.6270 O   0  0  0  0  0  0  0  0  0  0  0  0
   50.5850   52.8500   22.1070 C   0  0  0  0  0  0  0  0  0  0  0  0
   51.9690   52.3260   21.7150 C   0  0  0  0  0  0  0  0  0  0  0  0
  1  2  2  0  0  0  0
  1 23  1  0  0  0  0
  2  3  1  0  0  0  0
  4  2  1  0  0  0  0
  5  4  1  0  0  0  0
  6  5  2  0  0  0  0
  7  6  1  1  0  0  0
  7  8  1  0  0  0  0
  7  1  1  0  0  0  0
  8 13  1  1  0  0  0
  8  9  1  0  0  0  0
  9 10  2  0  0  0  0
 10 11  1  0  0  0  0
 12 11  1  0  0  0  0
 13 12  2  0  0  0  0
 14 13  1  0  0  0  0
 15  6  1  0  0  0  0
 16 18  1  0  0  0  0
 16 15  1  0  0  0  0
 17 16  1  0  0  0  0
 19 15  2  0  0  0  0
 20 21  1  0  0  0  0
 20  5  1  0  0  0  0
 22 20  1  0  0  0  0
 23 25  1  0  0  0  0
 24 23  2  0  0  0  0
 25 27  1  0  0  0  0
 27 26  1  0  0  0  0
M  END
>  <MODEL>
1

>  <REMARK>
  Name = ZINC58948677
                            x       y       z     vdW  Elec       q    Type
                         _______ _______ _______ _____ _____    ______ ____

>  <TORSDO>
F 6

>  <minimizedAffinity>
-6.9179668648952424

$$$$
ZINC58948677
 OpenBabel10211213033D

 27 28  0  0  1  0  0  0  0  0999 V2000
   48.6050   50.1310   17.0920 C   0  0  0  0  0  0  0  0  0  0  0  0
   48.7830   49.8080   15.8060 C   0  0  0  0  0  0  0  0  0  0  0  0
   47.6560   49.1470   15.0550 C   0  0  0  0  0  0  0  0  0  0  0  0
   49.9360   50.0570   15.1630 O   0  0  0  0  0  0  0  0  0  0  0  0
   51.0580   50.2880   15.8670 C   0  0  0  0  0  0  0  0  0  0  0  0
   51.0130   50.6440   17.1750 C   0  0  0  0  0  0  0  0  0  0  0  0
   49.6950   50.7980   17.8870 C   0  0  1  0  0  0  0  0  0  0  0  0
   49.3730   52.2620   18.0430 C   0  0  0  0  0  0  0  0  0  0  0  0
   48.7210   52.9400   17.0300 C   0  0  0  0  0  0  0  0  0  0  0  0
   48.4270   54.2820   17.1730 C   0  0  0  0  0  0  0  0  0  0  0  0
   48.7850   54.9470   18.3310 C   0  0  0  0  0  0  0  0  0  0  0  0
   49.4360   54.2710   19.3450 C   0  0  0  0  0  0  0  0  0  0  0  0
   49.7260   52.9270   19.2030 C   0  0  0  0  0  0  0  0  0  0  0  0
   50.4310   52.1870   20.3100 C   0  0  0  0  0  0  0  0  0  0  0  0
   52.2110   50.8760   17.8740 C   0  0  0  0  0  0  0  0  0  0  0  0
   52.6630   49.9660   18.7590 N   0  0  0  0  0  0  0  0  0  0  0  0
   53.4510   50.1550   19.2920 H   0  0  0  0  0  0  0  0  0  0  0  0
   52.1990   49.1200   18.8640 H   0  0  0  0  0  0  0  0  0  0  0  0
   52.8410   51.9020   17.6800 O   0  0  0  0  0  0  0  0  0  0  0  0
   52.2740   50.1620   15.2480 N   0  0  0  0  0  0  0  0  0  0  0  0
   52.4620   50.6650   14.4410 H   0  0  0  0  0  0  0  0  0  0  0  0
   52.9480   49.5700   15.6190 H   0  0  0  0  0  0  0  0  0  0  0  0
   47.3660   49.8420   17.7170 C   0  0  0  0  0  0  0  0  0  0  0  0
   46.3880   50.5210   17.4710 O   0  0  0  0  0  0  0  0  0  0  0  0
   47.2730   48.8130   18.5850 O   0  0  0  0  0  0  0  0  0  0  0  0
   45.3100   47.4670   19.0040 C   0  0  0  0  0  0  0  0  0  0  0  0
   46.5620   47.6560   18.1430 C   0  0  0  0  0  0  0  0  0  0  0  0
  1 23  1  0  0  0  0
  1  7  1  0  0  0  0
  2  1  2  0  0  0  0
  3  2  1  0  0  0  0
  4  2  1  0  0  0  0
  4  5  1  0  0  0  0
  5  6  2  0  0  0  0
  6 15  1  0  0  0  0
  6  7  1  0  0  0  0
  7  8  1  6  0  0  0
  8 13  2  0  0  0  0
  9 10  2  0  0  0  0
  9  8  1  0  0  0  0
 10 11  1  0  0  0  0
 11 12  2  0  0  0  0
 13 12  1  0  0  0  0
 13 14  1  0  0  0  0
 15 16  1  0  0  0  0
 16 18  1  0  0  0  0
 16 17  1  0  0  0  0
 19 15  2  0  0  0  0
 20 22  1  0  0  0  0
 20  5  1  0  0  0  0
 21 20  1  0  0  0  0
 23 25  1  0  0  0  0
 24 23  2  0  0  0  0
 27 25  1  0  0  0  0
 27 26  1  0  0  0  0
M  END
>  <MODEL>
2

>  <REMARK>
  Name = ZINC58948677
                            x       y       z     vdW  Elec       q    Type
                         _______ _______ _______ _____ _____    ______ ____

>  <TORSDO>
F 6

>  <minimizedAffinity>
-6.8803086862636365

$$$$
ZINC58948677
 OpenBabel10211213033D

 27 28  0  0  1  0  0  0  0  0999 V2000
   49.2020   52.7850   17.8300 C   0  0  0  0  0  0  0  0  0  0  0  0
   49.3730   53.3660   19.0240 C   0  0  0  0  0  0  0  0  0  0  0  0
   48.4770   54.5140   19.4130 C   0  0  0  0  0  0  0  0  0  0  0  0
   50.3190   52.9570   19.8850 O   0  0  0  0  0  0  0  0  0  0  0  0
   51.3520   52.2170   19.4430 C   0  0  0  0  0  0  0  0  0  0  0  0
   51.2960   51.5590   18.2590 C   0  0  0  0  0  0  0  0  0  0  0  0
   50.0650   51.6320   17.3940 C   0  0  1  0  0  0  0  0  0  0  0  0
   49.2840   50.3490   17.5180 C   0  0  0  0  0  0  0  0  0  0  0  0
   48.7860   49.9580   18.7470 C   0  0  0  0  0  0  0  0  0  0  0  0
   48.0710   48.7810   18.8610 C   0  0  0  0  0  0  0  0  0  0  0  0
   47.8510   47.9960   17.7450 C   0  0  0  0  0  0  0  0  0  0  0  0
   48.3470   48.3860   16.5160 C   0  0  0  0  0  0  0  0  0  0  0  0
   49.0600   49.5650   16.4020 C   0  0  0  0  0  0  0  0  0  0  0  0
   49.5960   49.9950   15.0600 C   0  0  0  0  0  0  0  0  0  0  0  0
   52.3990   50.7970   17.8340 C   0  0  0  0  0  0  0  0  0  0  0  0
   52.8040   50.8540   16.5510 N   0  0  0  0  0  0  0  0  0  0  0  0
   53.5200   50.2770   16.2410 H   0  0  0  0  0  0  0  0  0  0  0  0
   52.3800   51.4730   15.9350 H   0  0  0  0  0  0  0  0  0  0  0  0
   52.9880   50.0820   18.6280 O   0  0  0  0  0  0  0  0  0  0  0  0
   52.4850   52.1260   20.2080 N   0  0  0  0  0  0  0  0  0  0  0  0
   52.5040   52.5180   21.0950 H   0  0  0  0  0  0  0  0  0  0  0  0
   53.2670   51.6670   19.8630 H   0  0  0  0  0  0  0  0  0  0  0  0
   48.1880   53.2610   16.9630 C   0  0  0  0  0  0  0  0  0  0  0  0
   47.1010   52.7160   16.9400 O   0  0  0  0  0  0  0  0  0  0  0  0
   48.4270   54.3220   16.1640 O   0  0  0  0  0  0  0  0  0  0  0  0
   47.6930   56.5880   15.7610 C   0  0  0  0  0  0  0  0  0  0  0  0
   47.3000   55.1090   15.7760 C   0  0  0  0  0  0  0  0  0  0  0  0
  1  2  2  0  0  0  0
  2  3  1  0  0  0  0
  2  4  1  0  0  0  0
  5  4  1  0  0  0  0
  5 20  1  0  0  0  0
  6  5  2  0  0  0  0
  7  8  1  1  0  0  0
  7  1  1  0  0  0  0
  7  6  1  0  0  0  0
  8  9  1  0  0  0  0
  9 10  2  0  0  0  0
 11 10  1  0  0  0  0
 12 11  2  0  0  0  0
 13 12  1  0  0  0  0
 13  8  2  0  0  0  0
 14 13  1  0  0  0  0
 15  6  1  0  0  0  0
 15 19  2  0  0  0  0
 16 15  1  0  0  0  0
 17 16  1  0  0  0  0
 18 16  1  0  0  0  0
 20 21  1  0  0  0  0
 22 20  1  0  0  0  0
 23  1  1  0  0  0  0
 24 23  2  0  0  0  0
 25 23  1  0  0  0  0
 26 27  1  0  0  0  0
 27 25  1  0  0  0  0
M  END
>  <MODEL>
3

>  <REMARK>
  Name = ZINC58948677
                            x       y       z     vdW  Elec       q    Type
                         _______ _______ _______ _____ _____    ______ ____

>  <TORSDO>
F 6

>  <minimizedAffinity>
-6.8299645141011505

$$$$
ZINC58948677
 OpenBabel10211213033D

 27 28  0  0  1  0  0  0  0  0999 V2000
   50.4990   52.6390   19.6740 C   0  0  0  0  0  0  0  0  0  0  0  0
   51.1010   52.0030   20.6850 C   0  0  0  0  0  0  0  0  0  0  0  0
   51.0300   52.5970   22.0690 C   0  0  0  0  0  0  0  0  0  0  0  0
   51.7670   50.8510   20.5040 O   0  0  0  0  0  0  0  0  0  0  0  0
   52.1670   50.4960   19.2710 C   0  0  0  0  0  0  0  0  0  0  0  0
   51.6190   51.0510   18.1610 C   0  0  0  0  0  0  0  0  0  0  0  0
   50.5330   52.0880   18.2740 C   0  0  1  0  0  0  0  0  0  0  0  0
   49.2000   51.4610   17.9520 C   0  0  0  0  0  0  0  0  0  0  0  0
   48.9170   50.1780   18.3800 C   0  0  0  0  0  0  0  0  0  0  0  0
   47.6960   49.6040   18.0840 C   0  0  0  0  0  0  0  0  0  0  0  0
   46.7570   50.3140   17.3590 C   0  0  0  0  0  0  0  0  0  0  0  0
   47.0390   51.5970   16.9310 C   0  0  0  0  0  0  0  0  0  0  0  0
   48.2590   52.1720   17.2310 C   0  0  0  0  0  0  0  0  0  0  0  0
   48.5650   53.5740   16.7690 C   0  0  0  0  0  0  0  0  0  0  0  0
   52.0670   50.6500   16.8890 C   0  0  0  0  0  0  0  0  0  0  0  0
   51.1970   50.1370   15.9980 N   0  0  0  0  0  0  0  0  0  0  0  0
   51.5160   49.7970   15.1480 H   0  0  0  0  0  0  0  0  0  0  0  0
   50.2490   50.1080   16.2070 H   0  0  0  0  0  0  0  0  0  0  0  0
   53.2450   50.7660   16.5940 O   0  0  0  0  0  0  0  0  0  0  0  0
   53.1500   49.5510   19.1320 N   0  0  0  0  0  0  0  0  0  0  0  0
   53.3220   48.9220   19.8490 H   0  0  0  0  0  0  0  0  0  0  0  0
   53.6720   49.5110   18.3150 H   0  0  0  0  0  0  0  0  0  0  0  0
   49.8120   53.8530   19.9260 C   0  0  0  0  0  0  0  0  0  0  0  0
   48.6230   53.8380   20.1810 O   0  0  0  0  0  0  0  0  0  0  0  0
   50.4780   55.0260   19.8840 O   0  0  0  0  0  0  0  0  0  0  0  0
   51.2130   56.2340   21.8430 C   0  0  0  0  0  0  0  0  0  0  0  0
   50.0880   56.0260   20.8260 C   0  0  0  0  0  0  0  0  0  0  0  0
  1 23  1  0  0  0  0
  1  2  2  0  0  0  0
  2  3  1  0  0  0  0
  4  2  1  0  0  0  0
  5  4  1  0  0  0  0
  6  7  1  0  0  0  0
  6  5  2  0  0  0  0
  7  8  1  1  0  0  0
  7  1  1  0  0  0  0
  8  9  1  0  0  0  0
 10  9  2  0  0  0  0
 11 10  1  0  0  0  0
 12 13  1  0  0  0  0
 12 11  2  0  0  0  0
 13  8  2  0  0  0  0
 14 13  1  0  0  0  0
 15  6  1  0  0  0  0
 16 18  1  0  0  0  0
 16 15  1  0  0  0  0
 17 16  1  0  0  0  0
 19 15  2  0  0  0  0
 20  5  1  0  0  0  0
 20 21  1  0  0  0  0
 22 20  1  0  0  0  0
 23 24  2  0  0  0  0
 25 23  1  0  0  0  0
 25 27  1  0  0  0  0
 27 26  1  0  0  0  0
M  END
>  <MODEL>
4

>  <REMARK>
  Name = ZINC58948677
                            x       y       z     vdW  Elec       q    Type
                         _______ _______ _______ _____ _____    ______ ____

>  <TORSDO>
F 6

>  <minimizedAffinity>
-6.7449384884488151

$$$$
ZINC58948677
 OpenBabel10211213033D

 27 28  0  0  1  0  0  0  0  0999 V2000
   49.4820   55.4780   19.4530 C   0  0  0  0  0  0  0  0  0  0  0  0
   48.6680   56.2160   20.2180 C   0  0  0  0  0  0  0  0  0  0  0  0
   47.2120   56.3230   19.8440 C   0  0  0  0  0  0  0  0  0  0  0  0
   49.1110   56.8620   21.3080 O   0  0  0  0  0  0  0  0  0  0  0  0
   50.4260   57.0990   21.4590 C   0  0  0  0  0  0  0  0  0  0  0  0
   51.3550   56.4040   20.7580 C   0  0  0  0  0  0  0  0  0  0  0  0
   50.9430   55.3320   19.7830 C   0  0  1  0  0  0  0  0  0  0  0  0
   51.1840   53.9750   20.3930 C   0  0  0  0  0  0  0  0  0  0  0  0
   50.4800   53.5870   21.5170 C   0  0  0  0  0  0  0  0  0  0  0  0
   50.7020   52.3430   22.0760 C   0  0  0  0  0  0  0  0  0  0  0  0
   51.6270   51.4860   21.5100 C   0  0  0  0  0  0  0  0  0  0  0  0
   52.3300   51.8730   20.3850 C   0  0  0  0  0  0  0  0  0  0  0  0
   52.1050   53.1160   19.8240 C   0  0  0  0  0  0  0  0  0  0  0  0
   52.8680   53.5370   18.5940 C   0  0  0  0  0  0  0  0  0  0  0  0
   52.7210   56.6840   20.9460 C   0  0  0  0  0  0  0  0  0  0  0  0
   53.4870   57.0370   19.8950 N   0  0  0  0  0  0  0  0  0  0  0  0
   54.4420   57.1630   20.0110 H   0  0  0  0  0  0  0  0  0  0  0  0
   53.0840   57.1650   19.0220 H   0  0  0  0  0  0  0  0  0  0  0  0
   53.2110   56.6060   22.0590 O   0  0  0  0  0  0  0  0  0  0  0  0
   50.8350   58.0640   22.3410 N   0  0  0  0  0  0  0  0  0  0  0  0
   50.5050   58.0590   23.2530 H   0  0  0  0  0  0  0  0  0  0  0  0
   51.4570   58.7520   22.0540 H   0  0  0  0  0  0  0  0  0  0  0  0
   48.9580   54.8190   18.3130 C   0  0  0  0  0  0  0  0  0  0  0  0
   48.8430   55.4200   17.2620 O   0  0  0  0  0  0  0  0  0  0  0  0
   48.5870   53.5240   18.3940 O   0  0  0  0  0  0  0  0  0  0  0  0
   49.4090   51.2680   18.1280 C   0  0  0  0  0  0  0  0  0  0  0  0
   49.1730   52.6220   17.4550 C   0  0  0  0  0  0  0  0  0  0  0  0
  1  7  1  0  0  0  0
  1  2  2  0  0  0  0
  2  4  1  0  0  0  0
  3  2  1  0  0  0  0
  4  5  1  0  0  0  0
  5 20  1  0  0  0  0
  6 15  1  0  0  0  0
  6  5  2  0  0  0  0
  7  8  1  1  0  0  0
  7  6  1  0  0  0  0
  8  9  1  0  0  0  0
  9 10  2  0  0  0  0
 11 10  1  0  0  0  0
 12 11  2  0  0  0  0
 13 12  1  0  0  0  0
 13  8  2  0  0  0  0
 14 13  1  0  0  0  0
 15 19  2  0  0  0  0
 16 17  1  0  0  0  0
 16 15  1  0  0  0  0
 18 16  1  0  0  0  0
 20 21  1  0  0  0  0
 22 20  1  0  0  0  0
 23 25  1  0  0  0  0
 23  1  1  0  0  0  0
 24 23  2  0  0  0  0
 27 26  1  0  0  0  0
 27 25  1  0  0  0  0
M  END
>  <MODEL>
5

>  <REMARK>
  Name = ZINC58948677
                            x       y       z     vdW  Elec       q    Type
                         _______ _______ _______ _____ _____    ______ ____

>  <TORSDO>
F 6

>  <minimizedAffinity>
-6.7191272761809726

$$$$
ZINC58948677
 OpenBabel10211213033D

 27 28  0  0  1  0  0  0  0  0999 V2000
   50.0290   56.5850   20.0360 C   0  0  0  0  0  0  0  0  0  0  0  0
   49.5540   57.5210   20.8650 C   0  0  0  0  0  0  0  0  0  0  0  0
   48.0930   57.8860   20.7970 C   0  0  0  0  0  0  0  0  0  0  0  0
   50.3400   58.1450   21.7570 O   0  0  0  0  0  0  0  0  0  0  0  0
   51.6760   58.1290   21.6000 C   0  0  0  0  0  0  0  0  0  0  0  0
   52.2830   57.2150   20.8030 C   0  0  0  0  0  0  0  0  0  0  0  0
   51.4770   56.1780   20.0660 C   0  0  1  0  0  0  0  0  0  0  0  0
   51.6080   54.8480   20.7620 C   0  0  0  0  0  0  0  0  0  0  0  0
   51.3890   54.7540   22.1230 C   0  0  0  0  0  0  0  0  0  0  0  0
   51.5090   53.5350   22.7610 C   0  0  0  0  0  0  0  0  0  0  0  0
   51.8480   52.4070   22.0370 C   0  0  0  0  0  0  0  0  0  0  0  0
   52.0670   52.4990   20.6760 C   0  0  0  0  0  0  0  0  0  0  0  0
   51.9420   53.7190   20.0370 C   0  0  0  0  0  0  0  0  0  0  0  0
   52.1750   53.8190   18.5510 C   0  0  0  0  0  0  0  0  0  0  0  0
   53.6830   57.2330   20.6660 C   0  0  0  0  0  0  0  0  0  0  0  0
   54.2400   57.3150   19.4420 N   0  0  0  0  0  0  0  0  0  0  0  0
   55.2030   57.2580   19.3420 H   0  0  0  0  0  0  0  0  0  0  0  0
   53.6770   57.4330   18.6600 H   0  0  0  0  0  0  0  0  0  0  0  0
   54.3930   57.1720   21.6560 O   0  0  0  0  0  0  0  0  0  0  0  0
   52.4390   59.0550   22.2600 N   0  0  0  0  0  0  0  0  0  0  0  0
   52.2480   59.2690   23.1870 H   0  0  0  0  0  0  0  0  0  0  0  0
   53.1720   59.4950   21.8010 H   0  0  0  0  0  0  0  0  0  0  0  0
   49.1510   55.9610   19.1140 C   0  0  0  0  0  0  0  0  0  0  0  0
   48.3830   55.0980   19.4940 O   0  0  0  0  0  0  0  0  0  0  0  0
   49.1660   56.3270   17.8150 O   0  0  0  0  0  0  0  0  0  0  0  0
   47.9440   56.8710   15.8030 C   0  0  0  0  0  0  0  0  0  0  0  0
   48.0180   57.0210   17.3240 C   0  0  0  0  0  0  0  0  0  0  0  0
  1  7  1  0  0  0  0
  1  2  2  0  0  0  0
  2  4  1  0  0  0  0
  3  2  1  0  0  0  0
  5  4  1  0  0  0  0
  5 20  1  0  0  0  0
  6  5  2  0  0  0  0
  7  8  1  1  0  0  0
  7  6  1  0  0  0  0
  8  9  1  0  0  0  0
  9 10  2  0  0  0  0
 11 10  1  0  0  0  0
 12 11  2  0  0  0  0
 13 12  1  0  0  0  0
 13  8  2  0  0  0  0
 14 13  1  0  0  0  0
 15  6  1  0  0  0  0
 15 19  2  0  0  0  0
 16 15  1  0  0  0  0
 17 16  1  0  0  0  0
 18 16  1  0  0  0  0
 20 21  1  0  0  0  0
 22 20  1  0  0  0  0
 23 24  2  0  0  0  0
 23  1  1  0  0  0  0
 25 23  1  0  0  0  0
 26 27  1  0  0  0  0
 27 25  1  0  0  0  0
M  END
>  <MODEL>
6

>  <REMARK>
  Name = ZINC58948677
                            x       y       z     vdW  Elec       q    Type
                         _______ _______ _______ _____ _____    ______ ____

>  <TORSDO>
F 6

>  <minimizedAffinity>
-6.3435093385147621

$$$$
ZINC58948677
 OpenBabel10211213033D

 27 28  0  0  1  0  0  0  0  0999 V2000
   49.1600   55.3290   19.4520 C   0  0  0  0  0  0  0  0  0  0  0  0
   49.1840   54.5980   18.3310 C   0  0  0  0  0  0  0  0  0  0  0  0
   48.2950   54.9950   17.1810 C   0  0  0  0  0  0  0  0  0  0  0  0
   49.9770   53.5230   18.2000 O   0  0  0  0  0  0  0  0  0  0  0  0
   50.4850   52.9290   19.2940 C   0  0  0  0  0  0  0  0  0  0  0  0
   50.5390   53.5700   20.4880 C   0  0  0  0  0  0  0  0  0  0  0  0
   50.0320   54.9810   20.6280 C   0  0  1  0  0  0  0  0  0  0  0  0
   51.1980   55.9340   20.6840 C   0  0  0  0  0  0  0  0  0  0  0  0
   52.3340   55.6830   19.9380 C   0  0  0  0  0  0  0  0  0  0  0  0
   53.4030   56.5560   19.9890 C   0  0  0  0  0  0  0  0  0  0  0  0
   53.3360   57.6830   20.7880 C   0  0  0  0  0  0  0  0  0  0  0  0
   52.2010   57.9360   21.5340 C   0  0  0  0  0  0  0  0  0  0  0  0
   51.1300   57.0640   21.4780 C   0  0  0  0  0  0  0  0  0  0  0  0
   49.8890   57.3420   22.2870 C   0  0  0  0  0  0  0  0  0  0  0  0
   51.0780   52.9120   21.6080 C   0  0  0  0  0  0  0  0  0  0  0  0
   50.2950   52.6340   22.6690 N   0  0  0  0  0  0  0  0  0  0  0  0
   50.6810   52.2430   23.4680 H   0  0  0  0  0  0  0  0  0  0  0  0
   49.3450   52.8260   22.6330 H   0  0  0  0  0  0  0  0  0  0  0  0
   52.2550   52.5930   21.6190 O   0  0  0  0  0  0  0  0  0  0  0  0
   50.9610   51.6470   19.2010 N   0  0  0  0  0  0  0  0  0  0  0  0
   51.8850   51.4900   18.9530 H   0  0  0  0  0  0  0  0  0  0  0  0
   50.3720   50.8970   19.3830 H   0  0  0  0  0  0  0  0  0  0  0  0
   48.3010   56.4530   19.5320 C   0  0  0  0  0  0  0  0  0  0  0  0
   47.2460   56.3720   20.1320 O   0  0  0  0  0  0  0  0  0  0  0  0
   48.6530   57.6140   18.9410 O   0  0  0  0  0  0  0  0  0  0  0  0
   47.3940   59.6610   19.1960 C   0  0  0  0  0  0  0  0  0  0  0  0
   47.6030   58.3920   18.3650 C   0  0  0  0  0  0  0  0  0  0  0  0
  1 23  1  0  0  0  0
  1  7  1  0  0  0  0
  2  1  2  0  0  0  0
  3  2  1  0  0  0  0
  4  2  1  0  0  0  0
  4  5  1  0  0  0  0
  5  6  2  0  0  0  0
  6  7  1  0  0  0  0
  6 15  1  0  0  0  0
  7  8  1  6  0  0  0
  8 13  2  0  0  0  0
  9 10  2  0  0  0  0
  9  8  1  0  0  0  0
 10 11  1  0  0  0  0
 11 12  2  0  0  0  0
 13 12  1  0  0  0  0
 13 14  1  0  0  0  0
 15 19  2  0  0  0  0
 15 16  1  0  0  0  0
 16 17  1  0  0  0  0
 18 16  1  0  0  0  0
 20  5  1  0  0  0  0
 20 22  1  0  0  0  0
 21 20  1  0  0  0  0
 23 24  2  0  0  0  0
 25 23  1  0  0  0  0
 27 25  1  0  0  0  0
 27 26  1  0  0  0  0
M  END
>  <MODEL>
7

>  <REMARK>
  Name = ZINC58948677
                            x       y       z     vdW  Elec       q    Type
                         _______ _______ _______ _____ _____    ______ ____

>  <TORSDO>
F 6

>  <minimizedAffinity>
-6.1205888926113818

$$$$
ZINC58948677
 OpenBabel10211213033D

 27 28  0  0  1  0  0  0  0  0999 V2000
   48.7440   52.2820   16.8120 C   0  0  0  0  0  0  0  0  0  0  0  0
   49.6160   52.5600   17.7880 C   0  0  0  0  0  0  0  0  0  0  0  0
   49.3850   53.7720   18.6530 C   0  0  0  0  0  0  0  0  0  0  0  0
   50.6920   51.7900   18.0200 O   0  0  0  0  0  0  0  0  0  0  0  0
   51.1310   50.9480   17.0670 C   0  0  0  0  0  0  0  0  0  0  0  0
   50.3360   50.5700   16.0350 C   0  0  0  0  0  0  0  0  0  0  0  0
   48.9230   51.0810   15.9230 C   0  0  1  0  0  0  0  0  0  0  0  0
   47.9600   50.0010   16.3430 C   0  0  0  0  0  0  0  0  0  0  0  0
   47.8190   49.6800   17.6800 C   0  0  0  0  0  0  0  0  0  0  0  0
   46.9370   48.6890   18.0650 C   0  0  0  0  0  0  0  0  0  0  0  0
   46.1940   48.0180   17.1110 C   0  0  0  0  0  0  0  0  0  0  0  0
   46.3330   48.3380   15.7740 C   0  0  0  0  0  0  0  0  0  0  0  0
   47.2130   49.3330   15.3910 C   0  0  0  0  0  0  0  0  0  0  0  0
   47.3620   49.6860   13.9330 C   0  0  0  0  0  0  0  0  0  0  0  0
   50.8350   49.6880   15.0600 C   0  0  0  0  0  0  0  0  0  0  0  0
   50.3910   48.4170   15.0110 N   0  0  0  0  0  0  0  0  0  0  0  0
   50.7840   47.7890   14.3840 H   0  0  0  0  0  0  0  0  0  0  0  0
   49.6770   48.1290   15.6020 H   0  0  0  0  0  0  0  0  0  0  0  0
   51.6700   50.0730   14.2600 O   0  0  0  0  0  0  0  0  0  0  0  0
   52.4090   50.4600   17.1420 N   0  0  0  0  0  0  0  0  0  0  0  0
   52.8580   50.1540   16.3390 H   0  0  0  0  0  0  0  0  0  0  0  0
   52.8640   50.4230   17.9970 H   0  0  0  0  0  0  0  0  0  0  0  0
   47.6270   53.1320   16.6150 C   0  0  0  0  0  0  0  0  0  0  0  0
   46.6110   52.9620   17.2600 O   0  0  0  0  0  0  0  0  0  0  0  0
   47.6920   54.1320   15.7100 O   0  0  0  0  0  0  0  0  0  0  0  0
   47.9500   56.5140   15.3970 C   0  0  0  0  0  0  0  0  0  0  0  0
   47.1770   55.4030   16.1110 C   0  0  0  0  0  0  0  0  0  0  0  0
  1  2  2  0  0  0  0
  2  4  1  0  0  0  0
  2  3  1  0  0  0  0
  5 20  1  0  0  0  0
  5  4  1  0  0  0  0
  6  5  2  0  0  0  0
  7  6  1  0  0  0  0
  7  8  1  1  0  0  0
  7  1  1  0  0  0  0
  8  9  1  0  0  0  0
  9 10  2  0  0  0  0
 11 10  1  0  0  0  0
 12 11  2  0  0  0  0
 13 12  1  0  0  0  0
 13  8  2  0  0  0  0
 14 13  1  0  0  0  0
 15  6  1  0  0  0  0
 16 15  1  0  0  0  0
 16 18  1  0  0  0  0
 17 16  1  0  0  0  0
 19 15  2  0  0  0  0
 20 22  1  0  0  0  0
 21 20  1  0  0  0  0
 23  1  1  0  0  0  0
 23 24  2  0  0  0  0
 25 27  1  0  0  0  0
 25 23  1  0  0  0  0
 26 27  1  0  0  0  0
M  END
>  <MODEL>
8

>  <REMARK>
  Name = ZINC58948677
                            x       y       z     vdW  Elec       q    Type
                         _______ _______ _______ _____ _____    ______ ____

>  <TORSDO>
F 6

>  <minimizedAffinity>
-6.0872516237281173

$$$$
ZINC58948677
 OpenBabel10211213033D

 27 28  0  0  1  0  0  0  0  0999 V2000
   42.7540   62.8890   18.2690 C   0  0  0  0  0  0  0  0  0  0  0  0
   42.3800   64.0200   18.8780 C   0  0  0  0  0  0  0  0  0  0  0  0
   41.1940   63.9920   19.8090 C   0  0  0  0  0  0  0  0  0  0  0  0
   43.0300   65.1790   18.6870 O   0  0  0  0  0  0  0  0  0  0  0  0
   43.8260   65.3310   17.6130 C   0  0  0  0  0  0  0  0  0  0  0  0
   44.2910   64.2620   16.9200 C   0  0  0  0  0  0  0  0  0  0  0  0
   43.9330   62.8590   17.3360 C   0  0  1  0  0  0  0  0  0  0  0  0
   45.1080   62.2240   18.0350 C   0  0  0  0  0  0  0  0  0  0  0  0
   45.6230   62.7980   19.1820 C   0  0  0  0  0  0  0  0  0  0  0  0
   46.7000   62.2170   19.8230 C   0  0  0  0  0  0  0  0  0  0  0  0
   47.2620   61.0590   19.3170 C   0  0  0  0  0  0  0  0  0  0  0  0
   46.7460   60.4840   18.1710 C   0  0  0  0  0  0  0  0  0  0  0  0
   45.6660   61.0640   17.5330 C   0  0  0  0  0  0  0  0  0  0  0  0
   45.1000   60.4340   16.2860 C   0  0  0  0  0  0  0  0  0  0  0  0
   45.1210   64.4650   15.8030 C   0  0  0  0  0  0  0  0  0  0  0  0
   46.4480   64.2520   15.9010 N   0  0  0  0  0  0  0  0  0  0  0  0
   47.0290   64.4570   15.1520 H   0  0  0  0  0  0  0  0  0  0  0  0
   46.8220   63.8910   16.7200 H   0  0  0  0  0  0  0  0  0  0  0  0
   44.6400   64.8370   14.7460 O   0  0  0  0  0  0  0  0  0  0  0  0
   44.1750   66.5930   17.2110 N   0  0  0  0  0  0  0  0  0  0  0  0
   44.9340   67.0390   17.6190 H   0  0  0  0  0  0  0  0  0  0  0  0
   43.6640   67.0410   16.5190 H   0  0  0  0  0  0  0  0  0  0  0  0
   42.0280   61.6960   18.5100 C   0  0  0  0  0  0  0  0  0  0  0  0
   42.3440   60.9670   19.4310 O   0  0  0  0  0  0  0  0  0  0  0  0
   40.9840   61.3700   17.7180 O   0  0  0  0  0  0  0  0  0  0  0  0
   41.5110   59.3600   16.4860 C   0  0  0  0  0  0  0  0  0  0  0  0
   40.6690   59.9820   17.6030 C   0  0  0  0  0  0  0  0  0  0  0  0
  1 23  1  0  0  0  0
  1  2  2  0  0  0  0
  2  3  1  0  0  0  0
  4  2  1  0  0  0  0
  5  4  1  0  0  0  0
  6  7  1  0  0  0  0
  6  5  2  0  0  0  0
  7  8  1  1  0  0  0
  7  1  1  0  0  0  0
  8  9  1  0  0  0  0
  9 10  2  0  0  0  0
 11 10  1  0  0  0  0
 12 11  2  0  0  0  0
 13  8  2  0  0  0  0
 13 12  1  0  0  0  0
 14 13  1  0  0  0  0
 15 16  1  0  0  0  0
 15  6  1  0  0  0  0
 16 18  1  0  0  0  0
 17 16  1  0  0  0  0
 19 15  2  0  0  0  0
 20  5  1  0  0  0  0
 20 21  1  0  0  0  0
 22 20  1  0  0  0  0
 23 24  2  0  0  0  0
 25 23  1  0  0  0  0
 26 27  1  0  0  0  0
 27 25  1  0  0  0  0
M  END
>  <MODEL>
9

>  <REMARK>
  Name = ZINC58948677
                            x       y       z     vdW  Elec       q    Type
                         _______ _______ _______ _____ _____    ______ ____

>  <TORSDO>
F 6

>  <minimizedAffinity>
-5.9149240508547258

$$$$
ZINC42183832
 OpenBabel10211213043D

 27 29  0  0  1  0  0  0  0  0999 V2000
   48.7010   51.6040   16.6480 N   0  0  0  0  0  0  0  0  0  0  0  0
   49.4310   51.1860   16.1660 H   0  0  0  0  0  0  0  0  0  0  0  0
   47.5530   50.9270   16.8520 C   0  0  0  0  0  0  0  0  0  0  0  0
   46.6130   51.4750   17.3870 O   0  0  0  0  0  0  0  0  0  0  0  0
   47.4390   49.4890   16.4160 C   0  0  1  0  0  0  0  0  0  0  0  0
   48.4420   48.5940   17.2120 C   0  0  1  0  0  0  0  0  0  0  0  0
   47.6260   48.3580   18.5350 C   0  0  0  0  0  0  0  0  0  0  0  0
   46.3950   47.7430   17.7740 C   0  0  2  0  0  0  0  0  0  0  0  0
   47.1200   46.7200   16.8900 C   0  0  0  0  0  0  0  0  0  0  0  0
   48.3160   47.2150   16.5520 C   0  0  0  0  0  0  0  0  0  0  0  0
   46.0520   48.9140   16.7930 C   0  0  2  0  0  0  0  0  0  0  0  0
   45.3430   48.3940   15.5680 C   0  0  0  0  0  0  0  0  0  0  0  0
   44.2390   47.8890   15.6720 O   0  0  0  0  0  0  0  0  0  0  0  0
   45.8750   48.4780   14.4750 O   0  0  0  0  0  0  0  0  0  0  0  0
   49.8080   53.2010   18.0940 C   0  0  0  0  0  0  0  0  0  0  0  0
   49.9370   54.5110   18.5640 C   0  0  0  0  0  0  0  0  0  0  0  0
   49.1090   55.5000   18.0790 C   0  0  0  0  0  0  0  0  0  0  0  0
   48.1470   55.2020   17.1270 C   0  0  0  0  0  0  0  0  0  0  0  0
   48.0060   53.9130   16.6540 C   0  0  0  0  0  0  0  0  0  0  0  0
   48.8360   52.9050   17.1270 C   0  0  0  0  0  0  0  0  0  0  0  0
   50.4130   51.5410   19.7850 N   0  0  0  0  0  0  0  0  0  0  0  0
   49.6310   51.8100   20.2930 H   0  0  0  0  0  0  0  0  0  0  0  0
   50.6910   52.1380   18.6090 C   0  0  0  0  0  0  0  0  0  0  0  0
   51.6710   51.8000   17.9740 O   0  0  0  0  0  0  0  0  0  0  0  0
   52.2370   51.0730   21.3450 C   0  0  0  0  0  0  0  0  0  0  0  0
   51.2910   50.4850   20.2970 C   0  0  0  0  0  0  0  0  0  0  0  0
   50.4440   49.3820   20.9350 C   0  0  0  0  0  0  0  0  0  0  0  0
  1  3  1  0  0  0  0
  1 20  1  0  0  0  0
  2  1  1  0  0  0  0
  3  4  2  0  0  0  0
  5 11  1  0  0  0  0
  5  3  1  1  0  0  0
  5  6  1  0  0  0  0
  6 10  1  6  0  0  0
  6  7  1  0  0  0  0
  8  9  1  6  0  0  0
  8  7  1  0  0  0  0
 10  9  1  0  0  0  0
 11 12  1  6  0  0  0
 11  8  1  0  0  0  0
 12 13  1  0  0  0  0
 14 12  2  0  0  0  0
 15 16  2  0  0  0  0
 15 23  1  0  0  0  0
 17 16  1  0  0  0  0
 18 17  2  0  0  0  0
 19 20  2  0  0  0  0
 19 18  1  0  0  0  0
 20 15  1  0  0  0  0
 21 22  1  0  0  0  0
 21 26  1  0  0  0  0
 23 21  1  0  0  0  0
 24 23  2  0  0  0  0
 26 27  1  0  0  0  0
 26 25  1  0  0  0  0
M  END
>  <MODEL>
1

>  <REMARK>
  Name = ZINC42183832
                            x       y       z     vdW  Elec       q    Type
                         _______ _______ _______ _____ _____    ______ ____

>  <TORSDO>
F 5

>  <minimizedAffinity>
-7.8786743610530499

$$$$
ZINC42183832
 OpenBabel10211213043D

 27 29  0  0  1  0  0  0  0  0999 V2000
   49.9640   53.6300   19.8870 N   0  0  0  0  0  0  0  0  0  0  0  0
   49.1480   53.1330   20.0590 H   0  0  0  0  0  0  0  0  0  0  0  0
   50.6950   53.3660   18.7850 C   0  0  0  0  0  0  0  0  0  0  0  0
   51.7520   53.9320   18.6090 O   0  0  0  0  0  0  0  0  0  0  0  0
   50.1960   52.3680   17.7720 C   0  0  1  0  0  0  0  0  0  0  0  0
   51.0770   51.0780   17.7920 C   0  0  1  0  0  0  0  0  0  0  0  0
   50.4340   50.3130   19.0060 C   0  0  0  0  0  0  0  0  0  0  0  0
   48.9970   50.3200   18.3670 C   0  0  2  0  0  0  0  0  0  0  0  0
   49.3340   49.7990   16.9640 C   0  0  0  0  0  0  0  0  0  0  0  0
   50.5470   50.2450   16.6200 C   0  0  0  0  0  0  0  0  0  0  0  0
   48.7860   51.8580   18.1590 C   0  0  2  0  0  0  0  0  0  0  0  0
   47.8050   52.1140   17.0440 C   0  0  0  0  0  0  0  0  0  0  0  0
   48.1220   52.8250   16.1050 O   0  0  0  0  0  0  0  0  0  0  0  0
   46.6960   51.6100   17.0800 O   0  0  0  0  0  0  0  0  0  0  0  0
   49.7740   55.8780   20.7690 C   0  0  0  0  0  0  0  0  0  0  0  0
   50.1980   56.8560   21.6720 C   0  0  0  0  0  0  0  0  0  0  0  0
   51.2110   56.5740   22.5640 C   0  0  0  0  0  0  0  0  0  0  0  0
   51.8120   55.3260   22.5680 C   0  0  0  0  0  0  0  0  0  0  0  0
   51.4040   54.3500   21.6810 C   0  0  0  0  0  0  0  0  0  0  0  0
   50.3810   54.6130   20.7800 C   0  0  0  0  0  0  0  0  0  0  0  0
   48.7950   57.2270   18.9790 N   0  0  0  0  0  0  0  0  0  0  0  0
   49.5830   57.7930   19.0080 H   0  0  0  0  0  0  0  0  0  0  0  0
   48.6910   56.1730   19.8120 C   0  0  0  0  0  0  0  0  0  0  0  0
   47.7030   55.4650   19.7740 O   0  0  0  0  0  0  0  0  0  0  0  0
   47.4630   59.0290   17.9990 C   0  0  0  0  0  0  0  0  0  0  0  0
   47.7190   57.5210   18.0290 C   0  0  0  0  0  0  0  0  0  0  0  0
   48.1270   57.0450   16.6330 C   0  0  0  0  0  0  0  0  0  0  0  0
  1  2  1  0  0  0  0
  1 20  1  0  0  0  0
  3  1  1  0  0  0  0
  4  3  2  0  0  0  0
  5  6  1  0  0  0  0
  5 11  1  0  0  0  0
  5  3  1  1  0  0  0
  6 10  1  6  0  0  0
  6  7  1  0  0  0  0
  8  9  1  6  0  0  0
  8  7  1  0  0  0  0
 10  9  1  0  0  0  0
 11 12  1  6  0  0  0
 11  8  1  0  0  0  0
 12 14  1  0  0  0  0
 13 12  2  0  0  0  0
 15 20  2  0  0  0  0
 15 16  1  0  0  0  0
 16 17  2  0  0  0  0
 17 18  1  0  0  0  0
 19 18  2  0  0  0  0
 20 19  1  0  0  0  0
 21 22  1  0  0  0  0
 21 23  1  0  0  0  0
 23 15  1  0  0  0  0
 24 23  2  0  0  0  0
 25 26  1  0  0  0  0
 26 21  1  0  0  0  0
 27 26  1  0  0  0  0
M  END
>  <MODEL>
2

>  <REMARK>
  Name = ZINC42183832
                            x       y       z     vdW  Elec       q    Type
                         _______ _______ _______ _____ _____    ______ ____

>  <TORSDO>
F 5

>  <minimizedAffinity>
-7.6968863307746664

$$$$
ZINC42183832
 OpenBabel10211213043D

 27 29  0  0  1  0  0  0  0  0999 V2000
   49.5900   54.9720   20.3170 N   0  0  0  0  0  0  0  0  0  0  0  0
   49.5650   54.2600   20.9760 H   0  0  0  0  0  0  0  0  0  0  0  0
   50.2990   54.8140   19.1810 C   0  0  0  0  0  0  0  0  0  0  0  0
   50.3930   55.7300   18.3930 O   0  0  0  0  0  0  0  0  0  0  0  0
   50.9720   53.4970   18.8900 C   0  0  1  0  0  0  0  0  0  0  0  0
   52.3570   53.4190   19.6080 C   0  0  1  0  0  0  0  0  0  0  0  0
   51.9060   52.9810   21.0500 C   0  0  0  0  0  0  0  0  0  0  0  0
   51.1740   51.6910   20.5280 C   0  0  2  0  0  0  0  0  0  0  0  0
   52.2790   51.1040   19.6410 C   0  0  0  0  0  0  0  0  0  0  0  0
   52.9710   52.1110   19.0940 C   0  0  0  0  0  0  0  0  0  0  0  0
   50.1690   52.3270   19.5090 C   0  0  2  0  0  0  0  0  0  0  0  0
   49.7830   51.3290   18.4480 C   0  0  0  0  0  0  0  0  0  0  0  0
   49.3320   50.2430   18.7680 O   0  0  0  0  0  0  0  0  0  0  0  0
   49.9220   51.6080   17.2690 O   0  0  0  0  0  0  0  0  0  0  0  0
   49.5110   57.2070   21.2470 C   0  0  0  0  0  0  0  0  0  0  0  0
   48.8080   58.3950   21.4670 C   0  0  0  0  0  0  0  0  0  0  0  0
   47.5180   58.5260   20.9980 C   0  0  0  0  0  0  0  0  0  0  0  0
   46.9140   57.4850   20.3110 C   0  0  0  0  0  0  0  0  0  0  0  0
   47.5960   56.3060   20.0870 C   0  0  0  0  0  0  0  0  0  0  0  0
   48.8980   56.1580   20.5460 C   0  0  0  0  0  0  0  0  0  0  0  0
   51.8960   57.7420   21.1600 N   0  0  0  0  0  0  0  0  0  0  0  0
   51.7110   58.3290   20.4100 H   0  0  0  0  0  0  0  0  0  0  0  0
   50.8910   57.0600   21.7460 C   0  0  0  0  0  0  0  0  0  0  0  0
   51.1240   56.3240   22.6850 O   0  0  0  0  0  0  0  0  0  0  0  0
   54.2090   57.3380   20.4770 C   0  0  0  0  0  0  0  0  0  0  0  0
   53.2670   57.5950   21.6550 C   0  0  0  0  0  0  0  0  0  0  0  0
   53.6890   58.8780   22.3760 C   0  0  0  0  0  0  0  0  0  0  0  0
  1 20  1  0  0  0  0
  1  2  1  0  0  0  0
  3  1  1  0  0  0  0
  4  3  2  0  0  0  0
  5  3  1  1  0  0  0
  5 11  1  0  0  0  0
  5  6  1  0  0  0  0
  6 10  1  1  0  0  0
  6  7  1  0  0  0  0
  8  9  1  6  0  0  0
  8  7  1  0  0  0  0
 10  9  1  0  0  0  0
 11 12  1  6  0  0  0
 11  8  1  0  0  0  0
 12 13  1  0  0  0  0
 14 12  2  0  0  0  0
 15 16  1  0  0  0  0
 15 23  1  0  0  0  0
 17 16  2  0  0  0  0
 18 17  1  0  0  0  0
 19 18  2  0  0  0  0
 19 20  1  0  0  0  0
 20 15  2  0  0  0  0
 21 26  1  0  0  0  0
 21 23  1  0  0  0  0
 22 21  1  0  0  0  0
 23 24  2  0  0  0  0
 25 26  1  0  0  0  0
 26 27  1  0  0  0  0
M  END
>  <MODEL>
3

>  <REMARK>
  Name = ZINC42183832
                            x       y       z     vdW  Elec       q    Type
                         _______ _______ _______ _____ _____    ______ ____

>  <TORSDO>
F 5

>  <minimizedAffinity>
-7.6595920971996962

$$$$
ZINC42183832
 OpenBabel10211213043D

 27 29  0  0  1  0  0  0  0  0999 V2000
   50.4110   53.9250   18.3950 N   0  0  0  0  0  0  0  0  0  0  0  0
   51.3040   54.0200   18.0270 H   0  0  0  0  0  0  0  0  0  0  0  0
   50.1350   54.3980   19.6270 C   0  0  0  0  0  0  0  0  0  0  0  0
   49.0420   54.2130   20.1160 O   0  0  0  0  0  0  0  0  0  0  0  0
   51.1860   55.1590   20.3940 C   0  0  1  0  0  0  0  0  0  0  0  0
   51.4860   56.5280   19.7040 C   0  0  1  0  0  0  0  0  0  0  0  0
   50.3050   57.3970   20.2710 C   0  0  0  0  0  0  0  0  0  0  0  0
   50.7010   57.1230   21.7690 C   0  0  2  0  0  0  0  0  0  0  0  0
   52.1980   57.4500   21.7060 C   0  0  0  0  0  0  0  0  0  0  0  0
   52.6650   57.0980   20.5020 C   0  0  0  0  0  0  0  0  0  0  0  0
   50.6560   55.5580   21.7930 C   0  0  2  0  0  0  0  0  0  0  0  0
   51.5550   55.0160   22.8750 C   0  0  0  0  0  0  0  0  0  0  0  0
   52.1520   53.9680   22.7020 O   0  0  0  0  0  0  0  0  0  0  0  0
   51.6860   55.6280   23.9210 O   0  0  0  0  0  0  0  0  0  0  0  0
   49.4060   51.9010   17.5230 C   0  0  0  0  0  0  0  0  0  0  0  0
   48.3990   51.2820   16.7780 C   0  0  0  0  0  0  0  0  0  0  0  0
   47.4260   52.0450   16.1710 C   0  0  0  0  0  0  0  0  0  0  0  0
   47.4410   53.4260   16.2950 C   0  0  0  0  0  0  0  0  0  0  0  0
   48.4300   54.0510   17.0270 C   0  0  0  0  0  0  0  0  0  0  0  0
   49.4150   53.2980   17.6510 C   0  0  0  0  0  0  0  0  0  0  0  0
   50.2430   50.5870   19.4080 N   0  0  0  0  0  0  0  0  0  0  0  0
   49.4060   50.7590   19.8680 H   0  0  0  0  0  0  0  0  0  0  0  0
   50.4510   51.0890   18.1750 C   0  0  0  0  0  0  0  0  0  0  0  0
   51.5010   50.8730   17.6010 O   0  0  0  0  0  0  0  0  0  0  0  0
   52.1330   50.6760   20.9580 C   0  0  0  0  0  0  0  0  0  0  0  0
   51.2810   49.7810   20.0570 C   0  0  0  0  0  0  0  0  0  0  0  0
   50.6240   48.6850   20.8990 C   0  0  0  0  0  0  0  0  0  0  0  0
  1  3  1  0  0  0  0
  2  1  1  0  0  0  0
  3  4  2  0  0  0  0
  5  3  1  6  0  0  0
  5 11  1  0  0  0  0
  6  7  1  1  0  0  0
  6  5  1  0  0  0  0
  6 10  1  0  0  0  0
  8  7  1  6  0  0  0
  8 11  1  0  0  0  0
  9  8  1  0  0  0  0
 10  9  1  0  0  0  0
 11 12  1  6  0  0  0
 12 14  1  0  0  0  0
 13 12  2  0  0  0  0
 15 20  1  0  0  0  0
 15 23  1  0  0  0  0
 16 15  2  0  0  0  0
 17 18  2  0  0  0  0
 17 16  1  0  0  0  0
 18 19  1  0  0  0  0
 19 20  2  0  0  0  0
 20  1  1  0  0  0  0
 21 22  1  0  0  0  0
 21 26  1  0  0  0  0
 23 21  1  0  0  0  0
 24 23  2  0  0  0  0
 26 27  1  0  0  0  0
 26 25  1  0  0  0  0
M  END
>  <MODEL>
4

>  <REMARK>
  Name = ZINC42183832
                            x       y       z     vdW  Elec       q    Type
                         _______ _______ _______ _____ _____    ______ ____

>  <TORSDO>
F 5

>  <minimizedAffinity>
-7.6218751139981

$$$$
ZINC42183832
 OpenBabel10211213043D

 27 29  0  0  1  0  0  0  0  0999 V2000
   50.1850   53.3840   19.7520 N   0  0  0  0  0  0  0  0  0  0  0  0
   49.2760   53.4690   20.0800 H   0  0  0  0  0  0  0  0  0  0  0  0
   50.8060   54.4470   19.2030 C   0  0  0  0  0  0  0  0  0  0  0  0
   51.9120   54.3230   18.7240 O   0  0  0  0  0  0  0  0  0  0  0  0
   50.1230   55.7900   19.1840 C   0  0  1  0  0  0  0  0  0  0  0  0
   48.8350   55.7390   18.3010 C   0  0  1  0  0  0  0  0  0  0  0  0
   47.8120   55.1250   19.3260 C   0  0  0  0  0  0  0  0  0  0  0  0
   48.0440   56.2680   20.3810 C   0  0  2  0  0  0  0  0  0  0  0  0
   47.8850   57.4960   19.4750 C   0  0  0  0  0  0  0  0  0  0  0  0
   48.3530   57.1940   18.2580 C   0  0  0  0  0  0  0  0  0  0  0  0
   49.5910   56.1500   20.5920 C   0  0  2  0  0  0  0  0  0  0  0  0
   50.1660   57.4640   21.0570 C   0  0  0  0  0  0  0  0  0  0  0  0
   49.6550   58.0560   21.9910 O   0  0  0  0  0  0  0  0  0  0  0  0
   51.1430   57.9330   20.4980 O   0  0  0  0  0  0  0  0  0  0  0  0
   50.4940   51.1010   19.0020 C   0  0  0  0  0  0  0  0  0  0  0  0
   51.1690   49.8830   19.1030 C   0  0  0  0  0  0  0  0  0  0  0  0
   52.1740   49.7300   20.0330 C   0  0  0  0  0  0  0  0  0  0  0  0
   52.5190   50.7790   20.8710 C   0  0  0  0  0  0  0  0  0  0  0  0
   51.8590   51.9890   20.7830 C   0  0  0  0  0  0  0  0  0  0  0  0
   50.8490   52.1640   19.8470 C   0  0  0  0  0  0  0  0  0  0  0  0
   48.4700   50.3230   17.8710 N   0  0  0  0  0  0  0  0  0  0  0  0
   48.4960   49.5270   18.4250 H   0  0  0  0  0  0  0  0  0  0  0  0
   49.4170   51.2720   18.0080 C   0  0  0  0  0  0  0  0  0  0  0  0
   49.3830   52.2690   17.3120 O   0  0  0  0  0  0  0  0  0  0  0  0
   47.8150   49.8330   15.5660 C   0  0  0  0  0  0  0  0  0  0  0  0
   47.4010   50.4910   16.8830 C   0  0  0  0  0  0  0  0  0  0  0  0
   46.1200   49.8340   17.4010 C   0  0  0  0  0  0  0  0  0  0  0  0
  1 20  1  0  0  0  0
  1  2  1  0  0  0  0
  3  1  1  0  0  0  0
  4  3  2  0  0  0  0
  5  3  1  1  0  0  0
  5 11  1  0  0  0  0
  6 10  1  1  0  0  0
  6  5  1  0  0  0  0
  6  7  1  0  0  0  0
  8  7  1  6  0  0  0
  8 11  1  0  0  0  0
  9  8  1  0  0  0  0
 10  9  1  0  0  0  0
 11 12  1  6  0  0  0
 12 13  1  0  0  0  0
 14 12  2  0  0  0  0
 15 16  2  0  0  0  0
 15 20  1  0  0  0  0
 16 17  1  0  0  0  0
 17 18  2  0  0  0  0
 19 18  1  0  0  0  0
 20 19  2  0  0  0  0
 21 23  1  0  0  0  0
 21 22  1  0  0  0  0
 23 15  1  0  0  0  0
 24 23  2  0  0  0  0
 25 26  1  0  0  0  0
 26 27  1  0  0  0  0
 26 21  1  0  0  0  0
M  END
>  <MODEL>
5

>  <REMARK>
  Name = ZINC42183832
                            x       y       z     vdW  Elec       q    Type
                         _______ _______ _______ _____ _____    ______ ____

>  <TORSDO>
F 5

>  <minimizedAffinity>
-7.5655763224980639

$$$$
ZINC42183832
 OpenBabel10211213043D

 27 29  0  0  1  0  0  0  0  0999 V2000
   50.2190   54.4770   20.6210 N   0  0  0  0  0  0  0  0  0  0  0  0
   50.2180   53.8850   21.3900 H   0  0  0  0  0  0  0  0  0  0  0  0
   51.0610   54.2450   19.5930 C   0  0  0  0  0  0  0  0  0  0  0  0
   51.1170   55.0260   18.6680 O   0  0  0  0  0  0  0  0  0  0  0  0
   51.9310   53.0150   19.5960 C   0  0  1  0  0  0  0  0  0  0  0  0
   51.6450   52.1430   20.8600 C   0  0  1  0  0  0  0  0  0  0  0  0
   50.3690   51.3580   20.3810 C   0  0  0  0  0  0  0  0  0  0  0  0
   51.0950   50.7660   19.1180 C   0  0  2  0  0  0  0  0  0  0  0  0
   52.3700   50.2270   19.7780 C   0  0  0  0  0  0  0  0  0  0  0  0
   52.7010   51.0330   20.7950 C   0  0  0  0  0  0  0  0  0  0  0  0
   51.5620   52.0850   18.4140 C   0  0  2  0  0  0  0  0  0  0  0  0
   52.7660   51.8280   17.5450 C   0  0  0  0  0  0  0  0  0  0  0  0
   53.6420   52.6700   17.4530 O   0  0  0  0  0  0  0  0  0  0  0  0
   52.8650   50.7760   16.9370 O   0  0  0  0  0  0  0  0  0  0  0  0
   49.7420   56.7950   21.1370 C   0  0  0  0  0  0  0  0  0  0  0  0
   48.8670   57.8830   21.0850 C   0  0  0  0  0  0  0  0  0  0  0  0
   47.6300   57.7430   20.4940 C   0  0  0  0  0  0  0  0  0  0  0  0
   47.2480   56.5270   19.9490 C   0  0  0  0  0  0  0  0  0  0  0  0
   48.1020   55.4430   19.9930 C   0  0  0  0  0  0  0  0  0  0  0  0
   49.3540   55.5670   20.5800 C   0  0  0  0  0  0  0  0  0  0  0  0
   52.0250   57.6690   21.1670 N   0  0  0  0  0  0  0  0  0  0  0  0
   51.8440   58.1020   20.3170 H   0  0  0  0  0  0  0  0  0  0  0  0
   51.0670   56.9380   21.7690 C   0  0  0  0  0  0  0  0  0  0  0  0
   51.2950   56.3960   22.8330 O   0  0  0  0  0  0  0  0  0  0  0  0
   54.4330   57.5810   20.7470 C   0  0  0  0  0  0  0  0  0  0  0  0
   53.3420   57.8110   21.7940 C   0  0  0  0  0  0  0  0  0  0  0  0
   53.4810   59.2200   22.3740 C   0  0  0  0  0  0  0  0  0  0  0  0
  1  2  1  0  0  0  0
  3  1  1  0  0  0  0
  4  3  2  0  0  0  0
  5  3  1  1  0  0  0
  5  6  1  0  0  0  0
  6  7  1  6  0  0  0
  8  9  1  1  0  0  0
  8  7  1  0  0  0  0
  9 10  1  0  0  0  0
 10  6  1  0  0  0  0
 11 12  1  1  0  0  0
 11  8  1  0  0  0  0
 11  5  1  0  0  0  0
 13 12  1  0  0  0  0
 14 12  2  0  0  0  0
 15 23  1  0  0  0  0
 16 15  1  0  0  0  0
 17 16  2  0  0  0  0
 18 19  2  0  0  0  0
 18 17  1  0  0  0  0
 19 20  1  0  0  0  0
 20  1  1  0  0  0  0
 20 15  2  0  0  0  0
 21 23  1  0  0  0  0
 21 26  1  0  0  0  0
 22 21  1  0  0  0  0
 23 24  2  0  0  0  0
 25 26  1  0  0  0  0
 26 27  1  0  0  0  0
M  END
>  <MODEL>
6

>  <REMARK>
  Name = ZINC42183832
                            x       y       z     vdW  Elec       q    Type
                         _______ _______ _______ _____ _____    ______ ____

>  <TORSDO>
F 5

>  <minimizedAffinity>
-7.4514551154398196

$$$$
ZINC42183832
 OpenBabel10211213043D

 27 29  0  0  1  0  0  0  0  0999 V2000
   49.3900   51.5000   17.2950 N   0  0  0  0  0  0  0  0  0  0  0  0
   49.0900   51.9210   16.4740 H   0  0  0  0  0  0  0  0  0  0  0  0
   48.7710   50.3920   17.7500 C   0  0  0  0  0  0  0  0  0  0  0  0
   49.0950   49.9100   18.8140 O   0  0  0  0  0  0  0  0  0  0  0  0
   47.6760   49.7530   16.9340 C   0  0  1  0  0  0  0  0  0  0  0  0
   48.2380   49.2360   15.5710 C   0  0  1  0  0  0  0  0  0  0  0  0
   48.8440   47.8560   16.0180 C   0  0  0  0  0  0  0  0  0  0  0  0
   47.4760   47.3380   16.5960 C   0  0  2  0  0  0  0  0  0  0  0  0
   46.5570   47.6510   15.4080 C   0  0  0  0  0  0  0  0  0  0  0  0
   46.9940   48.7650   14.8090 C   0  0  0  0  0  0  0  0  0  0  0  0
   47.1580   48.4710   17.6300 C   0  0  2  0  0  0  0  0  0  0  0  0
   45.6730   48.5650   17.8760 C   0  0  0  0  0  0  0  0  0  0  0  0
   45.0650   49.5710   17.5550 O   0  0  0  0  0  0  0  0  0  0  0  0
   45.0810   47.6340   18.3950 O   0  0  0  0  0  0  0  0  0  0  0  0
   50.3870   53.3570   18.4890 C   0  0  0  0  0  0  0  0  0  0  0  0
   51.4630   53.8880   19.2050 C   0  0  0  0  0  0  0  0  0  0  0  0
   52.5860   53.1210   19.4270 C   0  0  0  0  0  0  0  0  0  0  0  0
   52.6550   51.8240   18.9430 C   0  0  0  0  0  0  0  0  0  0  0  0
   51.6000   51.2860   18.2340 C   0  0  0  0  0  0  0  0  0  0  0  0
   50.4580   52.0410   18.0060 C   0  0  0  0  0  0  0  0  0  0  0  0
   49.2990   55.4910   17.9990 N   0  0  0  0  0  0  0  0  0  0  0  0
   50.1770   55.9050   17.9780 H   0  0  0  0  0  0  0  0  0  0  0  0
   49.1820   54.1720   18.2480 C   0  0  0  0  0  0  0  0  0  0  0  0
   48.0810   53.6550   18.2740 O   0  0  0  0  0  0  0  0  0  0  0  0
   48.0680   57.4650   18.7530 C   0  0  0  0  0  0  0  0  0  0  0  0
   48.1020   56.3020   17.7600 C   0  0  0  0  0  0  0  0  0  0  0  0
   48.1350   56.8510   16.3320 C   0  0  0  0  0  0  0  0  0  0  0  0
  1  3  1  0  0  0  0
  1 20  1  0  0  0  0
  2  1  1  0  0  0  0
  3  4  2  0  0  0  0
  5 11  1  0  0  0  0
  5  3  1  1  0  0  0
  6 10  1  1  0  0  0
  6  7  1  0  0  0  0
  6  5  1  0  0  0  0
  7  8  1  0  0  0  0
  8  9  1  6  0  0  0
  8 11  1  0  0  0  0
 10  9  1  0  0  0  0
 11 12  1  6  0  0  0
 12 14  1  0  0  0  0
 13 12  2  0  0  0  0
 15 16  2  0  0  0  0
 16 17  1  0  0  0  0
 18 17  2  0  0  0  0
 19 18  1  0  0  0  0
 20 19  2  0  0  0  0
 20 15  1  0  0  0  0
 21 23  1  0  0  0  0
 22 21  1  0  0  0  0
 23 24  2  0  0  0  0
 23 15  1  0  0  0  0
 26 21  1  0  0  0  0
 26 25  1  0  0  0  0
 27 26  1  0  0  0  0
M  END
>  <MODEL>
7

>  <REMARK>
  Name = ZINC42183832
                            x       y       z     vdW  Elec       q    Type
                         _______ _______ _______ _____ _____    ______ ____

>  <TORSDO>
F 5

>  <minimizedAffinity>
-7.4498672768250902

$$$$
ZINC42183832
 OpenBabel10211213043D

 27 29  0  0  1  0  0  0  0  0999 V2000
   49.9470   50.8370   17.9420 N   0  0  0  0  0  0  0  0  0  0  0  0
   50.0410   50.2190   18.6840 H   0  0  0  0  0  0  0  0  0  0  0  0
   49.8260   52.1590   18.1770 C   0  0  0  0  0  0  0  0  0  0  0  0
   49.6320   52.9230   17.2550 O   0  0  0  0  0  0  0  0  0  0  0  0
   49.9320   52.6870   19.5840 C   0  0  1  0  0  0  0  0  0  0  0  0
   50.8690   51.7780   20.4420 C   0  0  1  0  0  0  0  0  0  0  0  0
   52.2750   52.3420   20.0210 C   0  0  0  0  0  0  0  0  0  0  0  0
   51.9200   53.8100   20.4620 C   0  0  2  0  0  0  0  0  0  0  0  0
   51.3700   53.5340   21.8670 C   0  0  0  0  0  0  0  0  0  0  0  0
   50.7480   52.3490   21.8600 C   0  0  0  0  0  0  0  0  0  0  0  0
   50.6400   54.0640   19.5970 C   0  0  2  0  0  0  0  0  0  0  0  0
   49.7610   55.1060   20.2410 C   0  0  0  0  0  0  0  0  0  0  0  0
   48.5490   54.9730   20.2290 O   0  0  0  0  0  0  0  0  0  0  0  0
   50.2620   56.0800   20.7760 O   0  0  0  0  0  0  0  0  0  0  0  0
   48.7480   49.8540   16.0810 C   0  0  0  0  0  0  0  0  0  0  0  0
   48.7460   49.3800   14.7660 C   0  0  0  0  0  0  0  0  0  0  0  0
   49.9080   49.4070   14.0260 C   0  0  0  0  0  0  0  0  0  0  0  0
   51.0790   49.9000   14.5770 C   0  0  0  0  0  0  0  0  0  0  0  0
   51.0960   50.3710   15.8750 C   0  0  0  0  0  0  0  0  0  0  0  0
   49.9340   50.3580   16.6350 C   0  0  0  0  0  0  0  0  0  0  0  0
   46.9990   48.6530   17.2980 N   0  0  0  0  0  0  0  0  0  0  0  0
   47.4480   47.8220   17.0740 H   0  0  0  0  0  0  0  0  0  0  0  0
   47.5080   49.8280   16.8800 C   0  0  0  0  0  0  0  0  0  0  0  0
   46.9440   50.8690   17.1610 O   0  0  0  0  0  0  0  0  0  0  0  0
   44.5910   48.2420   17.1920 C   0  0  0  0  0  0  0  0  0  0  0  0
   45.7670   48.6270   18.0910 C   0  0  0  0  0  0  0  0  0  0  0  0
   45.9070   47.6020   19.2170 C   0  0  0  0  0  0  0  0  0  0  0  0
  1  3  1  0  0  0  0
  1  2  1  0  0  0  0
  4  3  2  0  0  0  0
  5  3  1  6  0  0  0
  5 11  1  0  0  0  0
  5  6  1  0  0  0  0
  6  7  1  1  0  0  0
  6 10  1  0  0  0  0
  8  7  1  1  0  0  0
  8  9  1  0  0  0  0
 10  9  1  0  0  0  0
 11 12  1  1  0  0  0
 11  8  1  0  0  0  0
 12 14  1  0  0  0  0
 13 12  2  0  0  0  0
 15 20  1  0  0  0  0
 15 23  1  0  0  0  0
 16 15  2  0  0  0  0
 17 18  2  0  0  0  0
 17 16  1  0  0  0  0
 18 19  1  0  0  0  0
 19 20  2  0  0  0  0
 20  1  1  0  0  0  0
 21 26  1  0  0  0  0
 22 21  1  0  0  0  0
 23 24  2  0  0  0  0
 23 21  1  0  0  0  0
 25 26  1  0  0  0  0
 26 27  1  0  0  0  0
M  END
>  <MODEL>
8

>  <REMARK>
  Name = ZINC42183832
                            x       y       z     vdW  Elec       q    Type
                         _______ _______ _______ _____ _____    ______ ____

>  <TORSDO>
F 5

>  <minimizedAffinity>
-7.3942838716390717

$$$$
ZINC42183832
 OpenBabel10211213043D

 27 29  0  0  1  0  0  0  0  0999 V2000
   48.7310   52.3890   18.1990 N   0  0  0  0  0  0  0  0  0  0  0  0
   48.7710   51.6250   18.7960 H   0  0  0  0  0  0  0  0  0  0  0  0
   48.2510   52.2430   16.9480 C   0  0  0  0  0  0  0  0  0  0  0  0
   48.2710   53.1790   16.1770 O   0  0  0  0  0  0  0  0  0  0  0  0
   47.6880   50.9160   16.5080 C   0  0  1  0  0  0  0  0  0  0  0  0
   48.4110   50.4130   15.2180 C   0  0  1  0  0  0  0  0  0  0  0  0
   49.6990   49.7680   15.8470 C   0  0  0  0  0  0  0  0  0  0  0  0
   48.8740   48.7920   16.7630 C   0  0  2  0  0  0  0  0  0  0  0  0
   47.9100   48.2090   15.7210 C   0  0  0  0  0  0  0  0  0  0  0  0
   47.6310   49.1560   14.8180 C   0  0  0  0  0  0  0  0  0  0  0  0
   47.9970   49.8190   17.5560 C   0  0  2  0  0  0  0  0  0  0  0  0
   46.7240   49.1720   18.0380 C   0  0  0  0  0  0  0  0  0  0  0  0
   46.7690   48.2830   18.8700 O   0  0  0  0  0  0  0  0  0  0  0  0
   45.6480   49.5410   17.5970 O   0  0  0  0  0  0  0  0  0  0  0  0
   50.0730   53.7300   19.7050 C   0  0  0  0  0  0  0  0  0  0  0  0
   50.5130   54.9870   20.1300 C   0  0  0  0  0  0  0  0  0  0  0  0
   50.0560   56.1230   19.4980 C   0  0  0  0  0  0  0  0  0  0  0  0
   49.1620   56.0270   18.4440 C   0  0  0  0  0  0  0  0  0  0  0  0
   48.7180   54.7930   18.0140 C   0  0  0  0  0  0  0  0  0  0  0  0
   49.1720   53.6360   18.6340 C   0  0  0  0  0  0  0  0  0  0  0  0
   51.0070   51.4710   19.6450 N   0  0  0  0  0  0  0  0  0  0  0  0
   51.0120   51.5250   18.6760 H   0  0  0  0  0  0  0  0  0  0  0  0
   50.5580   52.5100   20.3760 C   0  0  0  0  0  0  0  0  0  0  0  0
   50.5520   52.4400   21.5910 O   0  0  0  0  0  0  0  0  0  0  0  0
   50.4450   49.1490   20.1690 C   0  0  0  0  0  0  0  0  0  0  0  0
   51.4890   50.2580   20.3120 C   0  0  0  0  0  0  0  0  0  0  0  0
   52.8020   49.8090   19.6670 C   0  0  0  0  0  0  0  0  0  0  0  0
  1 20  1  0  0  0  0
  1  2  1  0  0  0  0
  3  1  1  0  0  0  0
  4  3  2  0  0  0  0
  5  3  1  1  0  0  0
  5 11  1  0  0  0  0
  6 10  1  1  0  0  0
  6  7  1  0  0  0  0
  6  5  1  0  0  0  0
  7  8  1  0  0  0  0
  8  9  1  6  0  0  0
  8 11  1  0  0  0  0
 10  9  1  0  0  0  0
 11 12  1  6  0  0  0
 12 13  1  0  0  0  0
 14 12  2  0  0  0  0
 15 16  1  0  0  0  0
 15 23  1  0  0  0  0
 17 16  2  0  0  0  0
 18 17  1  0  0  0  0
 19 18  2  0  0  0  0
 19 20  1  0  0  0  0
 20 15  2  0  0  0  0
 21 26  1  0  0  0  0
 21 23  1  0  0  0  0
 22 21  1  0  0  0  0
 23 24  2  0  0  0  0
 25 26  1  0  0  0  0
 27 26  1  0  0  0  0
M  END
>  <MODEL>
9

>  <REMARK>
  Name = ZINC42183832
                            x       y       z     vdW  Elec       q    Type
                         _______ _______ _______ _____ _____    ______ ____

>  <TORSDO>
F 5

>  <minimizedAffinity>
-7.38418529136632

$$$$
ZINC03885823
 OpenBabel10211213063D

 26 27  0  0  0  0  0  0  0  0999 V2000
   50.5960   50.8630   19.5450 C   0  0  0  0  0  0  0  0  0  0  0  0
   50.1260   51.4780   18.4020 C   0  0  0  0  0  0  0  0  0  0  0  0
   49.3120   50.7840   17.5260 C   0  0  0  0  0  0  0  0  0  0  0  0
   48.9600   49.4730   17.7950 C   0  0  0  0  0  0  0  0  0  0  0  0
   49.4330   48.8500   18.9330 C   0  0  0  0  0  0  0  0  0  0  0  0
   50.2510   49.5450   19.8150 C   0  0  0  0  0  0  0  0  0  0  0  0
   51.6340   51.7480   20.6590 S   0  0  0  0  0  0  0  0  0  0  0  0
   52.8780   51.0590   20.6900 O   0  0  0  0  0  0  0  0  0  0  0  0
   50.8660   51.9830   21.8320 O   0  0  0  0  0  0  0  0  0  0  0  0
   51.9310   53.2290   19.9820 N   0  0  0  0  0  0  0  0  0  0  0  0
   52.5920   53.3180   19.2770 H   0  0  0  0  0  0  0  0  0  0  0  0
   49.9920   54.6620   19.8730 C   0  0  0  0  0  0  0  0  0  0  0  0
   49.2970   55.7700   20.3180 C   0  0  0  0  0  0  0  0  0  0  0  0
   49.8360   56.5790   21.3020 C   0  0  0  0  0  0  0  0  0  0  0  0
   48.9630   57.9750   21.8530 Cl  0  0  0  0  0  0  0  0  0  0  0  0
   51.0700   56.2760   21.8500 C   0  0  0  0  0  0  0  0  0  0  0  0
   51.7670   55.1660   21.4140 C   0  0  0  0  0  0  0  0  0  0  0  0
   51.2280   54.3530   20.4250 C   0  0  0  0  0  0  0  0  0  0  0  0
   48.8090   51.4470   16.3020 N   0  0  0  0  0  0  0  0  0  0  0  0
   48.6630   50.8040   15.2780 O   0  0  0  0  0  0  0  0  0  0  0  0
   48.5460   52.6350   16.3170 O   0  0  0  0  0  0  0  0  0  0  0  0
   50.7260   48.9190   20.9700 N   0  0  0  0  0  0  0  0  0  0  0  0
   50.6120   49.3450   21.8340 H   0  0  0  0  0  0  0  0  0  0  0  0
   51.3510   47.7070   20.8830 N   0  0  0  0  0  0  0  0  0  0  0  0
   51.4740   47.4330   19.9200 H   0  0  0  0  0  0  0  0  0  0  0  0
   50.8450   47.0030   21.3980 H   0  0  0  0  0  0  0  0  0  0  0  0
  1  6  1  0  0  0  0
  1  7  1  0  0  0  0
  2  1  2  0  0  0  0
  3  4  2  0  0  0  0
  3  2  1  0  0  0  0
  4  5  1  0  0  0  0
  5  6  2  0  0  0  0
  6 22  1  0  0  0  0
  7  8  2  0  0  0  0
  7  9  2  0  0  0  0
 10 18  1  0  0  0  0
 10  7  1  0  0  0  0
 11 10  1  0  0  0  0
 12 13  2  0  0  0  0
 12 18  1  0  0  0  0
 13 14  1  0  0  0  0
 14 16  2  0  0  0  0
 14 15  1  0  0  0  0
 17 16  1  0  0  0  0
 18 17  2  0  0  0  0
 19 21  2  0  0  0  0
 19  3  1  0  0  0  0
 20 19  2  0  0  0  0
 22 23  1  0  0  0  0
 24 22  1  0  0  0  0
 24 26  1  0  0  0  0
 25 24  1  0  0  0  0
M  END
>  <MODEL>
1

>  <REMARK>
  Name = ZINC03885823
                            x       y       z     vdW  Elec       q    Type
                         _______ _______ _______ _____ _____    ______ ____

>  <TORSDO>
F 6

>  <minimizedAffinity>
-8.3204110399032238

$$$$
ZINC03885823
 OpenBabel10211213063D

 26 27  0  0  0  0  0  0  0  0999 V2000
   50.8630   51.3790   19.1820 C   0  0  0  0  0  0  0  0  0  0  0  0
   49.7970   51.5770   18.3260 C   0  0  0  0  0  0  0  0  0  0  0  0
   48.9200   50.5420   18.0610 C   0  0  0  0  0  0  0  0  0  0  0  0
   49.1020   49.3070   18.6570 C   0  0  0  0  0  0  0  0  0  0  0  0
   50.1690   49.1000   19.5080 C   0  0  0  0  0  0  0  0  0  0  0  0
   51.0530   50.1380   19.7760 C   0  0  0  0  0  0  0  0  0  0  0  0
   51.9810   52.6980   19.5170 S   0  0  0  0  0  0  0  0  0  0  0  0
   53.2040   52.3670   18.8740 O   0  0  0  0  0  0  0  0  0  0  0  0
   51.9000   52.9550   20.9130 O   0  0  0  0  0  0  0  0  0  0  0  0
   51.3940   54.0440   18.7540 N   0  0  0  0  0  0  0  0  0  0  0  0
   51.4820   54.1350   17.7920 H   0  0  0  0  0  0  0  0  0  0  0  0
   49.3960   55.0180   19.6960 C   0  0  0  0  0  0  0  0  0  0  0  0
   48.7830   56.0110   20.4340 C   0  0  0  0  0  0  0  0  0  0  0  0
   49.5340   57.0460   20.9630 C   0  0  0  0  0  0  0  0  0  0  0  0
   48.7590   58.2970   21.8840 Cl  0  0  0  0  0  0  0  0  0  0  0  0
   50.9020   57.0860   20.7600 C   0  0  0  0  0  0  0  0  0  0  0  0
   51.5220   56.0910   20.0270 C   0  0  0  0  0  0  0  0  0  0  0  0
   50.7700   55.0520   19.4950 C   0  0  0  0  0  0  0  0  0  0  0  0
   47.7780   50.7570   17.1440 N   0  0  0  0  0  0  0  0  0  0  0  0
   46.6930   50.2660   17.3960 O   0  0  0  0  0  0  0  0  0  0  0  0
   47.9250   51.4220   16.1340 O   0  0  0  0  0  0  0  0  0  0  0  0
   52.1300   49.9350   20.6420 N   0  0  0  0  0  0  0  0  0  0  0  0
   52.0370   50.1310   21.5870 H   0  0  0  0  0  0  0  0  0  0  0  0
   53.3150   49.4570   20.1570 N   0  0  0  0  0  0  0  0  0  0  0  0
   53.2390   49.2300   19.1770 H   0  0  0  0  0  0  0  0  0  0  0  0
   53.6280   48.6600   20.6910 H   0  0  0  0  0  0  0  0  0  0  0  0
  1  7  1  0  0  0  0
  1  6  2  0  0  0  0
  2  1  1  0  0  0  0
  3  2  2  0  0  0  0
  3  4  1  0  0  0  0
  4  5  2  0  0  0  0
  5  6  1  0  0  0  0
  6 22  1  0  0  0  0
  7  9  2  0  0  0  0
  8  7  2  0  0  0  0
 10 18  1  0  0  0  0
 10  7  1  0  0  0  0
 11 10  1  0  0  0  0
 12 13  1  0  0  0  0
 13 14  2  0  0  0  0
 14 15  1  0  0  0  0
 16 14  1  0  0  0  0
 17 16  2  0  0  0  0
 18 12  2  0  0  0  0
 18 17  1  0  0  0  0
 19 20  2  0  0  0  0
 19  3  1  0  0  0  0
 21 19  2  0  0  0  0
 22 23  1  0  0  0  0
 24 22  1  0  0  0  0
 24 26  1  0  0  0  0
 25 24  1  0  0  0  0
M  END
>  <MODEL>
2

>  <REMARK>
  Name = ZINC03885823
                            x       y       z     vdW  Elec       q    Type
                         _______ _______ _______ _____ _____    ______ ____

>  <TORSDO>
F 6

>  <minimizedAffinity>
-8.2411351749484592

$$$$
ZINC03885823
 OpenBabel10211213063D

 26 27  0  0  0  0  0  0  0  0999 V2000
   50.9040   52.4150   19.8770 C   0  0  0  0  0  0  0  0  0  0  0  0
   50.3890   53.6740   19.6360 C   0  0  0  0  0  0  0  0  0  0  0  0
   50.4140   54.6350   20.6290 C   0  0  0  0  0  0  0  0  0  0  0  0
   50.9590   54.3420   21.8670 C   0  0  0  0  0  0  0  0  0  0  0  0
   51.4700   53.0830   22.1170 C   0  0  0  0  0  0  0  0  0  0  0  0
   51.4460   52.1150   21.1200 C   0  0  0  0  0  0  0  0  0  0  0  0
   50.8710   51.1910   18.6110 S   0  0  0  0  0  0  0  0  0  0  0  0
   50.2330   50.0490   19.1670 O   0  0  0  0  0  0  0  0  0  0  0  0
   52.1800   51.1390   18.0610 O   0  0  0  0  0  0  0  0  0  0  0  0
   49.8760   51.7530   17.4130 N   0  0  0  0  0  0  0  0  0  0  0  0
   49.8890   52.6920   17.1700 H   0  0  0  0  0  0  0  0  0  0  0  0
   49.4610   50.1790   15.6300 C   0  0  0  0  0  0  0  0  0  0  0  0
   48.6120   49.3060   14.9790 C   0  0  0  0  0  0  0  0  0  0  0  0
   47.3170   49.1290   15.4330 C   0  0  0  0  0  0  0  0  0  0  0  0
   46.2500   48.0350   14.6080 Cl  0  0  0  0  0  0  0  0  0  0  0  0
   46.8700   49.8230   16.5440 C   0  0  0  0  0  0  0  0  0  0  0  0
   47.7170   50.6930   17.2030 C   0  0  0  0  0  0  0  0  0  0  0  0
   49.0170   50.8730   16.7480 C   0  0  0  0  0  0  0  0  0  0  0  0
   49.8620   55.9830   20.3670 N   0  0  0  0  0  0  0  0  0  0  0  0
   49.4490   56.6620   21.2900 O   0  0  0  0  0  0  0  0  0  0  0  0
   49.8160   56.4110   19.2290 O   0  0  0  0  0  0  0  0  0  0  0  0
   51.9670   50.8430   21.3680 N   0  0  0  0  0  0  0  0  0  0  0  0
   51.4890   50.2280   21.9460 H   0  0  0  0  0  0  0  0  0  0  0  0
   53.1480   50.4650   20.7950 N   0  0  0  0  0  0  0  0  0  0  0  0
   53.4300   51.1200   20.0810 H   0  0  0  0  0  0  0  0  0  0  0  0
   53.0860   49.5290   20.4240 H   0  0  0  0  0  0  0  0  0  0  0  0
  1  6  1  0  0  0  0
  2  1  2  0  0  0  0
  2  3  1  0  0  0  0
  3  4  2  0  0  0  0
  4  5  1  0  0  0  0
  6 22  1  0  0  0  0
  6  5  2  0  0  0  0
  7  8  2  0  0  0  0
  7  1  1  0  0  0  0
  9  7  2  0  0  0  0
 10  7  1  0  0  0  0
 11 10  1  0  0  0  0
 12 18  2  0  0  0  0
 13 14  2  0  0  0  0
 13 12  1  0  0  0  0
 14 16  1  0  0  0  0
 15 14  1  0  0  0  0
 16 17  2  0  0  0  0
 18 17  1  0  0  0  0
 18 10  1  0  0  0  0
 19  3  1  0  0  0  0
 19 20  2  0  0  0  0
 21 19  2  0  0  0  0
 22 23  1  0  0  0  0
 24 22  1  0  0  0  0
 25 24  1  0  0  0  0
 26 24  1  0  0  0  0
M  END
>  <MODEL>
3

>  <REMARK>
  Name = ZINC03885823
                            x       y       z     vdW  Elec       q    Type
                         _______ _______ _______ _____ _____    ______ ____

>  <TORSDO>
F 6

>  <minimizedAffinity>
-7.8702576779564124

$$$$
ZINC03885823
 OpenBabel10211213063D

 26 27  0  0  0  0  0  0  0  0999 V2000
   50.6580   51.5340   19.6100 C   0  0  0  0  0  0  0  0  0  0  0  0
   50.1720   52.8260   19.6730 C   0  0  0  0  0  0  0  0  0  0  0  0
   50.5290   53.6500   20.7240 C   0  0  0  0  0  0  0  0  0  0  0  0
   51.3790   53.1870   21.7130 C   0  0  0  0  0  0  0  0  0  0  0  0
   51.8630   51.8950   21.6600 C   0  0  0  0  0  0  0  0  0  0  0  0
   51.5060   51.0640   20.6040 C   0  0  0  0  0  0  0  0  0  0  0  0
   50.2020   50.4850   18.2710 S   0  0  0  0  0  0  0  0  0  0  0  0
   49.8100   49.2430   18.8430 O   0  0  0  0  0  0  0  0  0  0  0  0
   51.2390   50.5830   17.3050 O   0  0  0  0  0  0  0  0  0  0  0  0
   48.8460   51.1350   17.5790 N   0  0  0  0  0  0  0  0  0  0  0  0
   48.6960   52.0930   17.6100 H   0  0  0  0  0  0  0  0  0  0  0  0
   48.2050   49.7560   15.7030 C   0  0  0  0  0  0  0  0  0  0  0  0
   47.2880   48.9300   15.0850 C   0  0  0  0  0  0  0  0  0  0  0  0
   46.0770   48.6560   15.6960 C   0  0  0  0  0  0  0  0  0  0  0  0
   44.9240   47.6220   14.9120 Cl  0  0  0  0  0  0  0  0  0  0  0  0
   45.7850   49.2040   16.9330 C   0  0  0  0  0  0  0  0  0  0  0  0
   46.7010   50.0260   17.5600 C   0  0  0  0  0  0  0  0  0  0  0  0
   47.9160   50.3030   16.9470 C   0  0  0  0  0  0  0  0  0  0  0  0
   50.0070   55.0340   20.7880 N   0  0  0  0  0  0  0  0  0  0  0  0
   50.5760   55.8680   21.4680 O   0  0  0  0  0  0  0  0  0  0  0  0
   49.0060   55.3360   20.1640 O   0  0  0  0  0  0  0  0  0  0  0  0
   51.9980   49.7580   20.5440 N   0  0  0  0  0  0  0  0  0  0  0  0
   51.4240   49.0120   20.7790 H   0  0  0  0  0  0  0  0  0  0  0  0
   53.2880   49.5310   20.1540 N   0  0  0  0  0  0  0  0  0  0  0  0
   53.6860   50.3540   19.7270 H   0  0  0  0  0  0  0  0  0  0  0  0
   53.3430   48.7380   19.5340 H   0  0  0  0  0  0  0  0  0  0  0  0
  1  2  2  0  0  0  0
  1  6  1  0  0  0  0
  2  3  1  0  0  0  0
  3 19  1  0  0  0  0
  3  4  2  0  0  0  0
  5  4  1  0  0  0  0
  6  5  2  0  0  0  0
  7  8  2  0  0  0  0
  7  1  1  0  0  0  0
  9  7  2  0  0  0  0
 10 11  1  0  0  0  0
 10  7  1  0  0  0  0
 12 18  2  0  0  0  0
 13 14  2  0  0  0  0
 13 12  1  0  0  0  0
 14 16  1  0  0  0  0
 15 14  1  0  0  0  0
 16 17  2  0  0  0  0
 18 17  1  0  0  0  0
 18 10  1  0  0  0  0
 19 20  2  0  0  0  0
 21 19  2  0  0  0  0
 22  6  1  0  0  0  0
 22 23  1  0  0  0  0
 24 22  1  0  0  0  0
 25 24  1  0  0  0  0
 26 24  1  0  0  0  0
M  END
>  <MODEL>
4

>  <REMARK>
  Name = ZINC03885823
                            x       y       z     vdW  Elec       q    Type
                         _______ _______ _______ _____ _____    ______ ____

>  <TORSDO>
F 6

>  <minimizedAffinity>
-7.7936877331565597

$$$$
ZINC03885823
 OpenBabel10211213063D

 26 27  0  0  0  0  0  0  0  0999 V2000
   50.9950   52.5070   19.2420 C   0  0  0  0  0  0  0  0  0  0  0  0
   50.0720   53.4770   18.9020 C   0  0  0  0  0  0  0  0  0  0  0  0
   49.8790   54.5680   19.7290 C   0  0  0  0  0  0  0  0  0  0  0  0
   50.6120   54.6950   20.8950 C   0  0  0  0  0  0  0  0  0  0  0  0
   51.5310   53.7260   21.2440 C   0  0  0  0  0  0  0  0  0  0  0  0
   51.7280   52.6280   20.4150 C   0  0  0  0  0  0  0  0  0  0  0  0
   51.2400   51.1170   18.1880 S   0  0  0  0  0  0  0  0  0  0  0  0
   50.6880   49.9930   18.8630 O   0  0  0  0  0  0  0  0  0  0  0  0
   52.5960   51.1590   17.7670 O   0  0  0  0  0  0  0  0  0  0  0  0
   50.3160   51.3570   16.8360 N   0  0  0  0  0  0  0  0  0  0  0  0
   50.5900   52.0070   16.1690 H   0  0  0  0  0  0  0  0  0  0  0  0
   47.9700   51.0140   17.2920 C   0  0  0  0  0  0  0  0  0  0  0  0
   46.8090   50.2910   17.1040 C   0  0  0  0  0  0  0  0  0  0  0  0
   46.8120   49.1720   16.2910 C   0  0  0  0  0  0  0  0  0  0  0  0
   45.3510   48.2610   16.0630 Cl  0  0  0  0  0  0  0  0  0  0  0  0
   47.9770   48.7770   15.6570 C   0  0  0  0  0  0  0  0  0  0  0  0
   49.1400   49.5000   15.8360 C   0  0  0  0  0  0  0  0  0  0  0  0
   49.1400   50.6230   16.6530 C   0  0  0  0  0  0  0  0  0  0  0  0
   48.8890   55.6070   19.3630 N   0  0  0  0  0  0  0  0  0  0  0  0
   48.2770   56.1980   20.2330 O   0  0  0  0  0  0  0  0  0  0  0  0
   48.6850   55.8660   18.1910 O   0  0  0  0  0  0  0  0  0  0  0  0
   52.6610   51.6480   20.7610 N   0  0  0  0  0  0  0  0  0  0  0  0
   53.5540   51.6740   20.3850 H   0  0  0  0  0  0  0  0  0  0  0  0
   52.3160   50.6530   21.6320 N   0  0  0  0  0  0  0  0  0  0  0  0
   51.6600   50.9880   22.3220 H   0  0  0  0  0  0  0  0  0  0  0  0
   53.1330   50.2580   22.0710 H   0  0  0  0  0  0  0  0  0  0  0  0
  1  6  1  0  0  0  0
  2  1  2  0  0  0  0
  2  3  1  0  0  0  0
  3  4  2  0  0  0  0
  4  5  1  0  0  0  0
  6 22  1  0  0  0  0
  6  5  2  0  0  0  0
  7  8  2  0  0  0  0
  7  1  1  0  0  0  0
  9  7  2  0  0  0  0
 10  7  1  0  0  0  0
 11 10  1  0  0  0  0
 13 12  1  0  0  0  0
 14 13  2  0  0  0  0
 15 14  1  0  0  0  0
 16 17  2  0  0  0  0
 16 14  1  0  0  0  0
 17 18  1  0  0  0  0
 18 10  1  0  0  0  0
 18 12  2  0  0  0  0
 19  3  1  0  0  0  0
 19 20  2  0  0  0  0
 21 19  2  0  0  0  0
 22 24  1  0  0  0  0
 23 22  1  0  0  0  0
 24 26  1  0  0  0  0
 24 25  1  0  0  0  0
M  END
>  <MODEL>
5

>  <REMARK>
  Name = ZINC03885823
                            x       y       z     vdW  Elec       q    Type
                         _______ _______ _______ _____ _____    ______ ____

>  <TORSDO>
F 6

>  <minimizedAffinity>
-7.7514262175181532

$$$$
ZINC03885823
 OpenBabel10211213063D

 26 27  0  0  0  0  0  0  0  0999 V2000
   50.2300   51.7400   17.8080 C   0  0  0  0  0  0  0  0  0  0  0  0
   49.4900   52.8640   18.1240 C   0  0  0  0  0  0  0  0  0  0  0  0
   50.1060   53.9590   18.7010 C   0  0  0  0  0  0  0  0  0  0  0  0
   51.4650   53.9360   18.9590 C   0  0  0  0  0  0  0  0  0  0  0  0
   52.2090   52.8140   18.6510 C   0  0  0  0  0  0  0  0  0  0  0  0
   51.5930   51.7120   18.0710 C   0  0  0  0  0  0  0  0  0  0  0  0
   49.4440   50.3450   17.0740 S   0  0  0  0  0  0  0  0  0  0  0  0
   49.4100   49.3290   18.0680 O   0  0  0  0  0  0  0  0  0  0  0  0
   50.0600   50.1500   15.8080 O   0  0  0  0  0  0  0  0  0  0  0  0
   47.8720   50.7690   16.7750 N   0  0  0  0  0  0  0  0  0  0  0  0
   47.6080   51.7020   16.7940 H   0  0  0  0  0  0  0  0  0  0  0  0
   47.0230   49.0310   15.3310 C   0  0  0  0  0  0  0  0  0  0  0  0
   46.0880   48.0510   15.0610 C   0  0  0  0  0  0  0  0  0  0  0  0
   45.0460   47.8240   15.9420 C   0  0  0  0  0  0  0  0  0  0  0  0
   43.8680   46.5970   15.5950 Cl  0  0  0  0  0  0  0  0  0  0  0  0
   44.9410   48.5740   17.1000 C   0  0  0  0  0  0  0  0  0  0  0  0
   45.8770   49.5510   17.3790 C   0  0  0  0  0  0  0  0  0  0  0  0
   46.9230   49.7810   16.4950 C   0  0  0  0  0  0  0  0  0  0  0  0
   49.3110   55.1610   19.0380 N   0  0  0  0  0  0  0  0  0  0  0  0
   48.8120   55.2710   20.1430 O   0  0  0  0  0  0  0  0  0  0  0  0
   49.1520   56.0380   18.2080 O   0  0  0  0  0  0  0  0  0  0  0  0
   52.3430   50.5780   17.7540 N   0  0  0  0  0  0  0  0  0  0  0  0
   52.3490   49.8160   18.3550 H   0  0  0  0  0  0  0  0  0  0  0  0
   53.0690   50.5400   16.5970 N   0  0  0  0  0  0  0  0  0  0  0  0
   53.8670   51.1550   16.6510 H   0  0  0  0  0  0  0  0  0  0  0  0
   52.4910   50.7640   15.8010 H   0  0  0  0  0  0  0  0  0  0  0  0
  1  6  2  0  0  0  0
  1  2  1  0  0  0  0
  2  3  2  0  0  0  0
  3  4  1  0  0  0  0
  3 19  1  0  0  0  0
  5  4  2  0  0  0  0
  6  5  1  0  0  0  0
  7  1  1  0  0  0  0
  7  8  2  0  0  0  0
  9  7  2  0  0  0  0
 10 11  1  0  0  0  0
 10  7  1  0  0  0  0
 12 18  1  0  0  0  0
 13 12  2  0  0  0  0
 13 14  1  0  0  0  0
 14 16  2  0  0  0  0
 15 14  1  0  0  0  0
 16 17  1  0  0  0  0
 18 10  1  0  0  0  0
 18 17  2  0  0  0  0
 19 20  2  0  0  0  0
 21 19  2  0  0  0  0
 22  6  1  0  0  0  0
 22 23  1  0  0  0  0
 24 25  1  0  0  0  0
 24 22  1  0  0  0  0
 26 24  1  0  0  0  0
M  END
>  <MODEL>
6

>  <REMARK>
  Name = ZINC03885823
                            x       y       z     vdW  Elec       q    Type
                         _______ _______ _______ _____ _____    ______ ____

>  <TORSDO>
F 6

>  <minimizedAffinity>
-7.6170011295766411

$$$$
ZINC03885823
 OpenBabel10211213063D

 26 27  0  0  0  0  0  0  0  0999 V2000
   50.0990   55.7400   20.3600 C   0  0  0  0  0  0  0  0  0  0  0  0
   49.2360   56.3320   19.4580 C   0  0  0  0  0  0  0  0  0  0  0  0
   48.6410   57.5420   19.7610 C   0  0  0  0  0  0  0  0  0  0  0  0
   48.9100   58.1680   20.9650 C   0  0  0  0  0  0  0  0  0  0  0  0
   49.7660   57.5780   21.8740 C   0  0  0  0  0  0  0  0  0  0  0  0
   50.3670   56.3620   21.5720 C   0  0  0  0  0  0  0  0  0  0  0  0
   50.8570   54.1980   19.9730 S   0  0  0  0  0  0  0  0  0  0  0  0
   50.1700   53.2080   20.7280 O   0  0  0  0  0  0  0  0  0  0  0  0
   52.2600   54.3960   20.0780 O   0  0  0  0  0  0  0  0  0  0  0  0
   50.5400   53.8820   18.3790 N   0  0  0  0  0  0  0  0  0  0  0  0
   51.0200   54.3610   17.6850 H   0  0  0  0  0  0  0  0  0  0  0  0
   48.3390   53.3220   17.5640 C   0  0  0  0  0  0  0  0  0  0  0  0
   47.3970   52.3730   17.2160 C   0  0  0  0  0  0  0  0  0  0  0  0
   47.6880   51.0270   17.3460 C   0  0  0  0  0  0  0  0  0  0  0  0
   46.5000   49.8370   16.9150 Cl  0  0  0  0  0  0  0  0  0  0  0  0
   48.9260   50.6270   17.8180 C   0  0  0  0  0  0  0  0  0  0  0  0
   49.8740   51.5720   18.1620 C   0  0  0  0  0  0  0  0  0  0  0  0
   49.5830   52.9240   18.0330 C   0  0  0  0  0  0  0  0  0  0  0  0
   47.7170   58.1740   18.7920 N   0  0  0  0  0  0  0  0  0  0  0  0
   47.5270   57.6580   17.7060 O   0  0  0  0  0  0  0  0  0  0  0  0
   47.1510   59.2130   19.0790 O   0  0  0  0  0  0  0  0  0  0  0  0
   51.2380   55.7650   22.4870 N   0  0  0  0  0  0  0  0  0  0  0  0
   50.9520   54.9900   22.9940 H   0  0  0  0  0  0  0  0  0  0  0  0
   52.4930   56.2740   22.6670 N   0  0  0  0  0  0  0  0  0  0  0  0
   52.4990   56.9710   23.3970 H   0  0  0  0  0  0  0  0  0  0  0  0
   52.8580   56.6490   21.8040 H   0  0  0  0  0  0  0  0  0  0  0  0
  1  6  2  0  0  0  0
  2  3  2  0  0  0  0
  2  1  1  0  0  0  0
  3  4  1  0  0  0  0
  4  5  2  0  0  0  0
  6  5  1  0  0  0  0
  6 22  1  0  0  0  0
  7  9  2  0  0  0  0
  7  1  1  0  0  0  0
  7  8  2  0  0  0  0
 10  7  1  0  0  0  0
 11 10  1  0  0  0  0
 12 18  2  0  0  0  0
 13 14  2  0  0  0  0
 13 12  1  0  0  0  0
 14 16  1  0  0  0  0
 15 14  1  0  0  0  0
 16 17  2  0  0  0  0
 18 17  1  0  0  0  0
 18 10  1  0  0  0  0
 19 21  2  0  0  0  0
 19  3  1  0  0  0  0
 20 19  2  0  0  0  0
 22 24  1  0  0  0  0
 22 23  1  0  0  0  0
 24 25  1  0  0  0  0
 26 24  1  0  0  0  0
M  END
>  <MODEL>
7

>  <REMARK>
  Name = ZINC03885823
                            x       y       z     vdW  Elec       q    Type
                         _______ _______ _______ _____ _____    ______ ____

>  <TORSDO>
F 6

>  <minimizedAffinity>
-7.4503541550135139

$$$$
ZINC03885823
 OpenBabel10211213063D

 26 27  0  0  0  0  0  0  0  0999 V2000
   50.4690   50.4540   18.6440 C   0  0  0  0  0  0  0  0  0  0  0  0
   49.5820   50.6580   17.6050 C   0  0  0  0  0  0  0  0  0  0  0  0
   48.4960   49.8170   17.4460 C   0  0  0  0  0  0  0  0  0  0  0  0
   48.2900   48.7730   18.3290 C   0  0  0  0  0  0  0  0  0  0  0  0
   49.1770   48.5590   19.3660 C   0  0  0  0  0  0  0  0  0  0  0  0
   50.2690   49.4020   19.5290 C   0  0  0  0  0  0  0  0  0  0  0  0
   51.8520   51.5260   18.8450 S   0  0  0  0  0  0  0  0  0  0  0  0
   52.9080   50.9760   18.0670 O   0  0  0  0  0  0  0  0  0  0  0  0
   51.9820   51.7650   20.2400 O   0  0  0  0  0  0  0  0  0  0  0  0
   51.4560   52.9750   18.1510 N   0  0  0  0  0  0  0  0  0  0  0  0
   51.6460   53.1310   17.2120 H   0  0  0  0  0  0  0  0  0  0  0  0
   51.6140   54.9840   19.4780 C   0  0  0  0  0  0  0  0  0  0  0  0
   51.0080   55.9730   20.2270 C   0  0  0  0  0  0  0  0  0  0  0  0
   49.6390   55.9510   20.4290 C   0  0  0  0  0  0  0  0  0  0  0  0
   48.8820   57.1920   21.3780 Cl  0  0  0  0  0  0  0  0  0  0  0  0
   48.8720   54.9410   19.8740 C   0  0  0  0  0  0  0  0  0  0  0  0
   49.4720   53.9530   19.1180 C   0  0  0  0  0  0  0  0  0  0  0  0
   50.8460   53.9730   18.9160 C   0  0  0  0  0  0  0  0  0  0  0  0
   47.5470   50.0390   16.3310 N   0  0  0  0  0  0  0  0  0  0  0  0
   46.3800   49.7170   16.4530 O   0  0  0  0  0  0  0  0  0  0  0  0
   47.9360   50.5390   15.2910 O   0  0  0  0  0  0  0  0  0  0  0  0
   51.1640   49.1930   20.5800 N   0  0  0  0  0  0  0  0  0  0  0  0
   52.0510   48.8420   20.4000 H   0  0  0  0  0  0  0  0  0  0  0  0
   50.7930   49.4830   21.8630 N   0  0  0  0  0  0  0  0  0  0  0  0
   50.4220   50.4190   21.9280 H   0  0  0  0  0  0  0  0  0  0  0  0
   51.5640   49.3530   22.5000 H   0  0  0  0  0  0  0  0  0  0  0  0
  1  7  1  0  0  0  0
  1  6  2  0  0  0  0
  2  1  1  0  0  0  0
  3  2  2  0  0  0  0
  3  4  1  0  0  0  0
  4  5  2  0  0  0  0
  5  6  1  0  0  0  0
  6 22  1  0  0  0  0
  7  9  2  0  0  0  0
  8  7  2  0  0  0  0
 10  7  1  0  0  0  0
 10 18  1  0  0  0  0
 11 10  1  0  0  0  0
 12 13  2  0  0  0  0
 13 14  1  0  0  0  0
 14 15  1  0  0  0  0
 16 14  2  0  0  0  0
 17 16  1  0  0  0  0
 18 17  2  0  0  0  0
 18 12  1  0  0  0  0
 19 20  2  0  0  0  0
 19  3  1  0  0  0  0
 21 19  2  0  0  0  0
 22 24  1  0  0  0  0
 23 22  1  0  0  0  0
 24 25  1  0  0  0  0
 24 26  1  0  0  0  0
M  END
>  <MODEL>
8

>  <REMARK>
  Name = ZINC03885823
                            x       y       z     vdW  Elec       q    Type
                         _______ _______ _______ _____ _____    ______ ____

>  <TORSDO>
F 6

>  <minimizedAffinity>
-7.4168720958848482

$$$$
ZINC03885823
 OpenBabel10211213063D

 26 27  0  0  0  0  0  0  0  0999 V2000
   51.2400   55.5160   20.6020 C   0  0  0  0  0  0  0  0  0  0  0  0
   52.5150   55.9970   20.8340 C   0  0  0  0  0  0  0  0  0  0  0  0
   52.6970   57.3020   21.2500 C   0  0  0  0  0  0  0  0  0  0  0  0
   51.6060   58.1300   21.4410 C   0  0  0  0  0  0  0  0  0  0  0  0
   50.3300   57.6580   21.2050 C   0  0  0  0  0  0  0  0  0  0  0  0
   50.1430   56.3470   20.7870 C   0  0  0  0  0  0  0  0  0  0  0  0
   51.0080   53.8530   20.0710 S   0  0  0  0  0  0  0  0  0  0  0  0
   49.9910   53.3010   20.8970 O   0  0  0  0  0  0  0  0  0  0  0  0
   52.3020   53.2740   19.9690 O   0  0  0  0  0  0  0  0  0  0  0  0
   50.3920   53.9100   18.5360 N   0  0  0  0  0  0  0  0  0  0  0  0
   50.6570   54.6220   17.9320 H   0  0  0  0  0  0  0  0  0  0  0  0
   49.8170   51.5860   18.2240 C   0  0  0  0  0  0  0  0  0  0  0  0
   48.9210   50.6210   17.8070 C   0  0  0  0  0  0  0  0  0  0  0  0
   47.7050   50.9930   17.2620 C   0  0  0  0  0  0  0  0  0  0  0  0
   46.5840   49.7770   16.7320 Cl  0  0  0  0  0  0  0  0  0  0  0  0
   47.3790   52.3320   17.1400 C   0  0  0  0  0  0  0  0  0  0  0  0
   48.2680   53.3020   17.5620 C   0  0  0  0  0  0  0  0  0  0  0  0
   49.4900   52.9310   18.1080 C   0  0  0  0  0  0  0  0  0  0  0  0
   54.0640   57.8140   21.4970 N   0  0  0  0  0  0  0  0  0  0  0  0
   54.6810   57.4530   22.4830 O   0  0  0  0  0  0  0  0  0  0  0  0
   54.5700   58.6010   20.7170 O   0  0  0  0  0  0  0  0  0  0  0  0
   48.8530   55.8640   20.5530 N   0  0  0  0  0  0  0  0  0  0  0  0
   48.4460   55.2440   21.1780 H   0  0  0  0  0  0  0  0  0  0  0  0
   48.1640   56.2660   19.4440 N   0  0  0  0  0  0  0  0  0  0  0  0
   48.0390   55.5000   18.7990 H   0  0  0  0  0  0  0  0  0  0  0  0
   48.6220   57.0450   18.9960 H   0  0  0  0  0  0  0  0  0  0  0  0
  1  6  2  0  0  0  0
  1  2  1  0  0  0  0
  2  3  2  0  0  0  0
  3  4  1  0  0  0  0
  3 19  1  0  0  0  0
  5  4  2  0  0  0  0
  6  5  1  0  0  0  0
  7  1  1  0  0  0  0
  7  8  2  0  0  0  0
  9  7  2  0  0  0  0
 10  7  1  0  0  0  0
 11 10  1  0  0  0  0
 13 12  2  0  0  0  0
 14 13  1  0  0  0  0
 15 14  1  0  0  0  0
 16 14  2  0  0  0  0
 16 17  1  0  0  0  0
 17 18  2  0  0  0  0
 18 12  1  0  0  0  0
 18 10  1  0  0  0  0
 19 20  2  0  0  0  0
 21 19  2  0  0  0  0
 22  6  1  0  0  0  0
 22 23  1  0  0  0  0
 24 22  1  0  0  0  0
 25 24  1  0  0  0  0
 26 24  1  0  0  0  0
M  END
>  <MODEL>
9

>  <REMARK>
  Name = ZINC03885823
                            x       y       z     vdW  Elec       q    Type
                         _______ _______ _______ _____ _____    ______ ____

>  <TORSDO>
F 6

>  <minimizedAffinity>
-7.2412040686374333

$$$$
ZINC63268826
 OpenBabel10211213073D

 26 26  0  0  0  0  0  0  0  0999 V2000
   49.8920   51.9380   18.5990 C   0  0  0  0  0  0  0  0  0  0  0  0
   49.2300   50.8480   17.9840 C   0  0  0  0  0  0  0  0  0  0  0  0
   49.5270   49.7200   18.7330 C   0  0  0  0  0  0  0  0  0  0  0  0
   49.0370   48.3230   18.4530 C   0  0  0  0  0  0  0  0  0  0  0  0
   50.3220   50.0850   19.7490 N   0  0  0  0  0  0  0  0  0  0  0  0
   50.6770   49.4880   20.4260 H   0  0  0  0  0  0  0  0  0  0  0  0
   50.5600   51.4400   19.6770 C   0  0  0  0  0  0  0  0  0  0  0  0
   51.3910   52.2170   20.6070 C   0  0  0  0  0  0  0  0  0  0  0  0
   50.8150   52.8930   21.6210 N   0  0  0  0  0  0  0  0  0  0  0  0
   49.8520   52.8670   21.7370 H   0  0  0  0  0  0  0  0  0  0  0  0
   52.5980   52.2500   20.4620 O   0  0  0  0  0  0  0  0  0  0  0  0
   51.6060   53.6340   22.5080 N   0  0  0  0  0  0  0  0  0  0  0  0
   52.2040   53.1780   23.1210 H   0  0  0  0  0  0  0  0  0  0  0  0
   51.5370   54.9800   22.5110 C   0  0  0  0  0  0  0  0  0  0  0  0
   50.7060   55.6130   21.6600 N   0  0  0  0  0  0  0  0  0  0  0  0
   50.1580   55.1010   21.0450 H   0  0  0  0  0  0  0  0  0  0  0  0
   52.2240   55.6230   23.2810 O   0  0  0  0  0  0  0  0  0  0  0  0
   50.6300   57.0760   21.6630 C   0  0  0  0  0  0  0  0  0  0  0  0
   49.1700   57.5120   21.5280 C   0  0  0  0  0  0  0  0  0  0  0  0
   51.4390   57.6320   20.4900 C   0  0  0  0  0  0  0  0  0  0  0  0
   48.3900   50.9030   16.7840 C   0  0  0  0  0  0  0  0  0  0  0  0
   46.8890   50.9110   16.9150 C   0  0  0  0  0  0  0  0  0  0  0  0
   48.9040   50.9430   15.6850 O   0  0  0  0  0  0  0  0  0  0  0  0
   49.8690   53.3740   18.1450 C   0  0  0  0  0  0  0  0  0  0  0  0
   48.7520   55.5900   18.4430 C   0  0  0  0  0  0  0  0  0  0  0  0
   48.7370   54.1170   18.8580 C   0  0  0  0  0  0  0  0  0  0  0  0
  1  7  2  0  0  0  0
  2  1  1  0  0  0  0
  2  3  2  0  0  0  0
  3  5  1  0  0  0  0
  4  3  1  0  0  0  0
  5  6  1  0  0  0  0
  7  5  1  0  0  0  0
  7  8  1  0  0  0  0
  8  9  1  0  0  0  0
  9 10  1  0  0  0  0
  9 12  1  0  0  0  0
 11  8  2  0  0  0  0
 12 14  1  0  0  0  0
 12 13  1  0  0  0  0
 14 17  2  0  0  0  0
 15 18  1  0  0  0  0
 15 14  1  0  0  0  0
 16 15  1  0  0  0  0
 19 18  1  0  0  0  0
 20 18  1  0  0  0  0
 21 22  1  0  0  0  0
 21  2  1  0  0  0  0
 23 21  2  0  0  0  0
 24  1  1  0  0  0  0
 24 26  1  0  0  0  0
 25 26  1  0  0  0  0
M  END
>  <MODEL>
1

>  <REMARK>
  Name = ZINC63268826
                            x       y       z     vdW  Elec       q    Type
                         _______ _______ _______ _____ _____    ______ ____

>  <TORSDO>
F 6

>  <minimizedAffinity>
-7.2837034969178971

$$$$
ZINC63268826
 OpenBabel10211213073D

 26 26  0  0  0  0  0  0  0  0999 V2000
   50.1130   53.5290   19.1280 C   0  0  0  0  0  0  0  0  0  0  0  0
   50.3120   54.4850   20.1530 C   0  0  0  0  0  0  0  0  0  0  0  0
   51.0070   53.8490   21.1700 C   0  0  0  0  0  0  0  0  0  0  0  0
   51.4430   54.4790   22.4670 C   0  0  0  0  0  0  0  0  0  0  0  0
   51.2260   52.5790   20.8010 N   0  0  0  0  0  0  0  0  0  0  0  0
   51.6930   51.9140   21.3300 H   0  0  0  0  0  0  0  0  0  0  0  0
   50.6790   52.3650   19.5550 C   0  0  0  0  0  0  0  0  0  0  0  0
   50.7040   51.0990   18.8110 C   0  0  0  0  0  0  0  0  0  0  0  0
   49.8460   50.1110   19.1330 N   0  0  0  0  0  0  0  0  0  0  0  0
   49.2110   50.2360   19.8560 H   0  0  0  0  0  0  0  0  0  0  0  0
   51.5000   50.9410   17.9040 O   0  0  0  0  0  0  0  0  0  0  0  0
   49.8690   48.9030   18.4240 N   0  0  0  0  0  0  0  0  0  0  0  0
   50.7160   48.4790   18.2170 H   0  0  0  0  0  0  0  0  0  0  0  0
   48.7150   48.3300   18.0280 C   0  0  0  0  0  0  0  0  0  0  0  0
   47.5370   48.9200   18.3150 N   0  0  0  0  0  0  0  0  0  0  0  0
   47.5200   49.7570   18.8060 H   0  0  0  0  0  0  0  0  0  0  0  0
   48.7350   47.2820   17.4130 O   0  0  0  0  0  0  0  0  0  0  0  0
   46.2830   48.2990   17.8850 C   0  0  0  0  0  0  0  0  0  0  0  0
   45.3140   49.3810   17.4060 C   0  0  0  0  0  0  0  0  0  0  0  0
   45.6600   47.5410   19.0600 C   0  0  0  0  0  0  0  0  0  0  0  0
   49.8680   55.8820   20.1400 C   0  0  0  0  0  0  0  0  0  0  0  0
   48.4050   56.2090   20.2990 C   0  0  0  0  0  0  0  0  0  0  0  0
   50.6780   56.7750   20.0030 O   0  0  0  0  0  0  0  0  0  0  0  0
   49.4030   53.7520   17.8180 C   0  0  0  0  0  0  0  0  0  0  0  0
   47.7890   52.2160   16.6870 C   0  0  0  0  0  0  0  0  0  0  0  0
   48.0010   53.1430   17.8860 C   0  0  0  0  0  0  0  0  0  0  0  0
  1  7  2  0  0  0  0
  1  2  1  0  0  0  0
  2  3  2  0  0  0  0
  3  4  1  0  0  0  0
  5  3  1  0  0  0  0
  5  6  1  0  0  0  0
  7  5  1  0  0  0  0
  8  9  1  0  0  0  0
  8  7  1  0  0  0  0
  9 10  1  0  0  0  0
 11  8  2  0  0  0  0
 12  9  1  0  0  0  0
 13 12  1  0  0  0  0
 14 15  1  0  0  0  0
 14 12  1  0  0  0  0
 15 16  1  0  0  0  0
 17 14  2  0  0  0  0
 18 15  1  0  0  0  0
 18 20  1  0  0  0  0
 19 18  1  0  0  0  0
 21  2  1  0  0  0  0
 21 22  1  0  0  0  0
 23 21  2  0  0  0  0
 24 26  1  0  0  0  0
 24  1  1  0  0  0  0
 25 26  1  0  0  0  0
M  END
>  <MODEL>
2

>  <REMARK>
  Name = ZINC63268826
                            x       y       z     vdW  Elec       q    Type
                         _______ _______ _______ _____ _____    ______ ____

>  <TORSDO>
F 6

>  <minimizedAffinity>
-7.2607084674851068

$$$$
ZINC63268826
 OpenBabel10211213073D

 26 26  0  0  0  0  0  0  0  0999 V2000
   47.3690   48.0470   15.7060 C   0  0  0  0  0  0  0  0  0  0  0  0
   46.1470   47.8090   15.0340 C   0  0  0  0  0  0  0  0  0  0  0  0
   46.2360   48.4320   13.7990 C   0  0  0  0  0  0  0  0  0  0  0  0
   45.1660   48.4460   12.7390 C   0  0  0  0  0  0  0  0  0  0  0  0
   47.4380   49.0210   13.7100 N   0  0  0  0  0  0  0  0  0  0  0  0
   47.7590   49.5270   12.9470 H   0  0  0  0  0  0  0  0  0  0  0  0
   48.1420   48.7990   14.8730 C   0  0  0  0  0  0  0  0  0  0  0  0
   49.4960   49.2870   15.1640 C   0  0  0  0  0  0  0  0  0  0  0  0
   49.6800   50.2530   16.0850 N   0  0  0  0  0  0  0  0  0  0  0  0
   48.9190   50.6270   16.5550 H   0  0  0  0  0  0  0  0  0  0  0  0
   50.4520   48.8190   14.5740 O   0  0  0  0  0  0  0  0  0  0  0  0
   50.9720   50.7190   16.3630 N   0  0  0  0  0  0  0  0  0  0  0  0
   51.5080   51.1110   15.6570 H   0  0  0  0  0  0  0  0  0  0  0  0
   51.4690   50.6230   17.6120 C   0  0  0  0  0  0  0  0  0  0  0  0
   50.7240   50.0780   18.5940 N   0  0  0  0  0  0  0  0  0  0  0  0
   49.8300   49.7550   18.4020 H   0  0  0  0  0  0  0  0  0  0  0  0
   52.5900   51.0280   17.8530 O   0  0  0  0  0  0  0  0  0  0  0  0
   51.2650   49.9730   19.9510 C   0  0  0  0  0  0  0  0  0  0  0  0
   50.6100   48.7920   20.6710 C   0  0  0  0  0  0  0  0  0  0  0  0
   50.9720   51.2640   20.7180 C   0  0  0  0  0  0  0  0  0  0  0  0
   45.0030   47.0460   15.5460 C   0  0  0  0  0  0  0  0  0  0  0  0
   44.9840   45.5440   15.4230 C   0  0  0  0  0  0  0  0  0  0  0  0
   44.0740   47.6250   16.0680 O   0  0  0  0  0  0  0  0  0  0  0  0
   47.7430   47.5660   17.0850 C   0  0  0  0  0  0  0  0  0  0  0  0
   46.0960   47.8920   18.9360 C   0  0  0  0  0  0  0  0  0  0  0  0
   47.2170   48.5530   18.1290 C   0  0  0  0  0  0  0  0  0  0  0  0
  1 24  1  0  0  0  0
  2 21  1  0  0  0  0
  2  1  1  0  0  0  0
  3  2  2  0  0  0  0
  4  3  1  0  0  0  0
  5  3  1  0  0  0  0
  5  7  1  0  0  0  0
  6  5  1  0  0  0  0
  7  8  1  0  0  0  0
  7  1  2  0  0  0  0
  8  9  1  0  0  0  0
  9 12  1  0  0  0  0
  9 10  1  0  0  0  0
 11  8  2  0  0  0  0
 12 14  1  0  0  0  0
 13 12  1  0  0  0  0
 14 17  2  0  0  0  0
 14 15  1  0  0  0  0
 15 18  1  0  0  0  0
 16 15  1  0  0  0  0
 18 19  1  0  0  0  0
 18 20  1  0  0  0  0
 21 23  2  0  0  0  0
 22 21  1  0  0  0  0
 24 26  1  0  0  0  0
 26 25  1  0  0  0  0
M  END
>  <MODEL>
3

>  <REMARK>
  Name = ZINC63268826
                            x       y       z     vdW  Elec       q    Type
                         _______ _______ _______ _____ _____    ______ ____

>  <TORSDO>
F 6

>  <minimizedAffinity>
-7.2112048357069343

$$$$
ZINC63268826
 OpenBabel10211213073D

 26 26  0  0  0  0  0  0  0  0999 V2000
   50.1460   54.5610   20.3920 C   0  0  0  0  0  0  0  0  0  0  0  0
   50.2160   55.9450   20.6800 C   0  0  0  0  0  0  0  0  0  0  0  0
   51.3850   56.1510   21.3960 C   0  0  0  0  0  0  0  0  0  0  0  0
   51.8790   57.4750   21.9170 C   0  0  0  0  0  0  0  0  0  0  0  0
   52.0020   54.9690   21.5440 N   0  0  0  0  0  0  0  0  0  0  0  0
   52.8430   54.8300   22.0070 H   0  0  0  0  0  0  0  0  0  0  0  0
   51.2520   53.9840   20.9400 C   0  0  0  0  0  0  0  0  0  0  0  0
   51.5890   52.5550   20.8910 C   0  0  0  0  0  0  0  0  0  0  0  0
   50.9050   51.6760   21.6470 N   0  0  0  0  0  0  0  0  0  0  0  0
   50.1900   51.9850   22.2240 H   0  0  0  0  0  0  0  0  0  0  0  0
   52.4870   52.1670   20.1670 O   0  0  0  0  0  0  0  0  0  0  0  0
   51.2260   50.3130   21.6010 N   0  0  0  0  0  0  0  0  0  0  0  0
   51.7860   49.9230   22.2910 H   0  0  0  0  0  0  0  0  0  0  0  0
   50.7570   49.5420   20.6000 C   0  0  0  0  0  0  0  0  0  0  0  0
   49.9790   50.0830   19.6410 N   0  0  0  0  0  0  0  0  0  0  0  0
   49.7570   51.0270   19.6720 H   0  0  0  0  0  0  0  0  0  0  0  0
   51.0360   48.3590   20.5610 O   0  0  0  0  0  0  0  0  0  0  0  0
   49.4700   49.2470   18.5530 C   0  0  0  0  0  0  0  0  0  0  0  0
   49.5950   50.0010   17.2270 C   0  0  0  0  0  0  0  0  0  0  0  0
   48.0000   48.9110   18.8120 C   0  0  0  0  0  0  0  0  0  0  0  0
   49.2390   56.9680   20.2930 C   0  0  0  0  0  0  0  0  0  0  0  0
   48.5010   57.7440   21.3540 C   0  0  0  0  0  0  0  0  0  0  0  0
   49.0250   57.1890   19.1200 O   0  0  0  0  0  0  0  0  0  0  0  0
   49.0520   53.8580   19.6320 C   0  0  0  0  0  0  0  0  0  0  0  0
   48.2130   53.3850   17.3250 C   0  0  0  0  0  0  0  0  0  0  0  0
   49.4460   53.7440   18.1580 C   0  0  0  0  0  0  0  0  0  0  0  0
  1  2  1  0  0  0  0
  1  7  2  0  0  0  0
  2  3  2  0  0  0  0
  3  5  1  0  0  0  0
  3  4  1  0  0  0  0
  5  6  1  0  0  0  0
  7  5  1  0  0  0  0
  8  7  1  0  0  0  0
  8  9  1  0  0  0  0
  9 10  1  0  0  0  0
 11  8  2  0  0  0  0
 12  9  1  0  0  0  0
 12 13  1  0  0  0  0
 14 12  1  0  0  0  0
 15 16  1  0  0  0  0
 15 14  1  0  0  0  0
 17 14  2  0  0  0  0
 18 20  1  0  0  0  0
 18 15  1  0  0  0  0
 19 18  1  0  0  0  0
 21  2  1  0  0  0  0
 21 22  1  0  0  0  0
 23 21  2  0  0  0  0
 24  1  1  0  0  0  0
 25 26  1  0  0  0  0
 26 24  1  0  0  0  0
M  END
>  <MODEL>
4

>  <REMARK>
  Name = ZINC63268826
                            x       y       z     vdW  Elec       q    Type
                         _______ _______ _______ _____ _____    ______ ____

>  <TORSDO>
F 6

>  <minimizedAffinity>
-7.0571399686312635

$$$$
ZINC63268826
 OpenBabel10211213073D

 26 26  0  0  0  0  0  0  0  0999 V2000
   50.1860   51.3370   18.4300 C   0  0  0  0  0  0  0  0  0  0  0  0
   49.8410   50.0220   18.8240 C   0  0  0  0  0  0  0  0  0  0  0  0
   50.5950   49.7260   19.9490 C   0  0  0  0  0  0  0  0  0  0  0  0
   50.5610   48.4310   20.7190 C   0  0  0  0  0  0  0  0  0  0  0  0
   51.3590   50.7900   20.2360 N   0  0  0  0  0  0  0  0  0  0  0  0
   51.9830   50.8490   20.9770 H   0  0  0  0  0  0  0  0  0  0  0  0
   51.1250   51.7830   19.3110 C   0  0  0  0  0  0  0  0  0  0  0  0
   51.7740   53.1000   19.2800 C   0  0  0  0  0  0  0  0  0  0  0  0
   51.5860   53.9670   20.2940 N   0  0  0  0  0  0  0  0  0  0  0  0
   51.0230   53.7220   21.0450 H   0  0  0  0  0  0  0  0  0  0  0  0
   52.4800   53.4090   18.3390 O   0  0  0  0  0  0  0  0  0  0  0  0
   52.2050   55.2240   20.2660 N   0  0  0  0  0  0  0  0  0  0  0  0
   53.1730   55.2880   20.2630 H   0  0  0  0  0  0  0  0  0  0  0  0
   51.4560   56.3440   20.2440 C   0  0  0  0  0  0  0  0  0  0  0  0
   50.1110   56.2560   20.2480 N   0  0  0  0  0  0  0  0  0  0  0  0
   49.6820   55.3860   20.2680 H   0  0  0  0  0  0  0  0  0  0  0  0
   51.9940   57.4350   20.2190 O   0  0  0  0  0  0  0  0  0  0  0  0
   49.2970   57.4730   20.2240 C   0  0  0  0  0  0  0  0  0  0  0  0
   48.9090   57.8560   21.6530 C   0  0  0  0  0  0  0  0  0  0  0  0
   48.0320   57.2240   19.4010 C   0  0  0  0  0  0  0  0  0  0  0  0
   48.8710   49.1400   18.1680 C   0  0  0  0  0  0  0  0  0  0  0  0
   47.5250   48.8980   18.8010 C   0  0  0  0  0  0  0  0  0  0  0  0
   49.1510   48.6060   17.1150 O   0  0  0  0  0  0  0  0  0  0  0  0
   49.6260   52.0970   17.2550 C   0  0  0  0  0  0  0  0  0  0  0  0
   47.1400   52.3130   17.1200 C   0  0  0  0  0  0  0  0  0  0  0  0
   48.4180   52.9180   17.7080 C   0  0  0  0  0  0  0  0  0  0  0  0
  1  2  1  0  0  0  0
  1  7  2  0  0  0  0
  2  3  2  0  0  0  0
  3  5  1  0  0  0  0
  3  4  1  0  0  0  0
  5  6  1  0  0  0  0
  7  5  1  0  0  0  0
  8  7  1  0  0  0  0
  8  9  1  0  0  0  0
  9 10  1  0  0  0  0
 11  8  2  0  0  0  0
 12  9  1  0  0  0  0
 13 12  1  0  0  0  0
 14 15  1  0  0  0  0
 14 12  1  0  0  0  0
 15 16  1  0  0  0  0
 17 14  2  0  0  0  0
 18 15  1  0  0  0  0
 18 19  1  0  0  0  0
 20 18  1  0  0  0  0
 21 22  1  0  0  0  0
 21  2  1  0  0  0  0
 23 21  2  0  0  0  0
 24 26  1  0  0  0  0
 24  1  1  0  0  0  0
 25 26  1  0  0  0  0
M  END
>  <MODEL>
5

>  <REMARK>
  Name = ZINC63268826
                            x       y       z     vdW  Elec       q    Type
                         _______ _______ _______ _____ _____    ______ ____

>  <TORSDO>
F 6

>  <minimizedAffinity>
-7.0440885627692973

$$$$
ZINC63268826
 OpenBabel10211213073D

 26 26  0  0  0  0  0  0  0  0999 V2000
   47.3210   49.4970   15.7110 C   0  0  0  0  0  0  0  0  0  0  0  0
   46.3330   48.5360   16.0350 C   0  0  0  0  0  0  0  0  0  0  0  0
   45.6870   48.9870   17.1750 C   0  0  0  0  0  0  0  0  0  0  0  0
   44.5580   48.2850   17.8850 C   0  0  0  0  0  0  0  0  0  0  0  0
   46.2390   50.1540   17.5380 N   0  0  0  0  0  0  0  0  0  0  0  0
   45.9730   50.6850   18.3050 H   0  0  0  0  0  0  0  0  0  0  0  0
   47.2450   50.4770   16.6550 C   0  0  0  0  0  0  0  0  0  0  0  0
   48.0910   51.6760   16.7170 C   0  0  0  0  0  0  0  0  0  0  0  0
   49.1970   51.6810   17.4860 N   0  0  0  0  0  0  0  0  0  0  0  0
   49.4360   50.8930   17.9990 H   0  0  0  0  0  0  0  0  0  0  0  0
   47.7930   52.6650   16.0740 O   0  0  0  0  0  0  0  0  0  0  0  0
   50.0050   52.8240   17.5460 N   0  0  0  0  0  0  0  0  0  0  0  0
   49.9740   53.4770   16.8290 H   0  0  0  0  0  0  0  0  0  0  0  0
   50.8240   53.0170   18.5980 C   0  0  0  0  0  0  0  0  0  0  0  0
   50.8670   52.1100   19.5940 N   0  0  0  0  0  0  0  0  0  0  0  0
   50.3080   51.3180   19.5530 H   0  0  0  0  0  0  0  0  0  0  0  0
   51.5240   54.0100   18.6500 O   0  0  0  0  0  0  0  0  0  0  0  0
   51.7570   52.3190   20.7380 C   0  0  0  0  0  0  0  0  0  0  0  0
   52.4170   50.9930   21.1210 C   0  0  0  0  0  0  0  0  0  0  0  0
   50.9480   52.8480   21.9240 C   0  0  0  0  0  0  0  0  0  0  0  0
   46.0460   47.2990   15.3010 C   0  0  0  0  0  0  0  0  0  0  0  0
   45.3790   47.3610   13.9520 C   0  0  0  0  0  0  0  0  0  0  0  0
   46.3470   46.2260   15.7810 O   0  0  0  0  0  0  0  0  0  0  0  0
   48.2790   49.4430   14.5500 C   0  0  0  0  0  0  0  0  0  0  0  0
   50.7640   49.6850   14.4540 C   0  0  0  0  0  0  0  0  0  0  0  0
   49.6100   48.8490   15.0130 C   0  0  0  0  0  0  0  0  0  0  0  0
  1  2  1  0  0  0  0
  1  7  2  0  0  0  0
  2  3  2  0  0  0  0
  3  5  1  0  0  0  0
  3  4  1  0  0  0  0
  5  6  1  0  0  0  0
  7  8  1  0  0  0  0
  7  5  1  0  0  0  0
  8  9  1  0  0  0  0
  9 12  1  0  0  0  0
  9 10  1  0  0  0  0
 11  8  2  0  0  0  0
 12 14  1  0  0  0  0
 13 12  1  0  0  0  0
 14 17  2  0  0  0  0
 14 15  1  0  0  0  0
 15 18  1  0  0  0  0
 16 15  1  0  0  0  0
 18 19  1  0  0  0  0
 18 20  1  0  0  0  0
 21 23  2  0  0  0  0
 21  2  1  0  0  0  0
 22 21  1  0  0  0  0
 24 26  1  0  0  0  0
 24  1  1  0  0  0  0
 25 26  1  0  0  0  0
M  END
>  <MODEL>
6

>  <REMARK>
  Name = ZINC63268826
                            x       y       z     vdW  Elec       q    Type
                         _______ _______ _______ _____ _____    ______ ____

>  <TORSDO>
F 6

>  <minimizedAffinity>
-6.9729955313087917

$$$$
ZINC63268826
 OpenBabel10211213073D

 26 26  0  0  0  0  0  0  0  0999 V2000
   49.8990   50.7590   18.6870 C   0  0  0  0  0  0  0  0  0  0  0  0
   49.0550   50.0050   17.8370 C   0  0  0  0  0  0  0  0  0  0  0  0
   48.8840   50.7440   16.6770 C   0  0  0  0  0  0  0  0  0  0  0  0
   48.0600   50.3350   15.4840 C   0  0  0  0  0  0  0  0  0  0  0  0
   49.5770   51.8860   16.7980 N   0  0  0  0  0  0  0  0  0  0  0  0
   49.6290   52.5850   16.1280 H   0  0  0  0  0  0  0  0  0  0  0  0
   50.2000   51.9120   18.0270 C   0  0  0  0  0  0  0  0  0  0  0  0
   51.0480   52.9980   18.5370 C   0  0  0  0  0  0  0  0  0  0  0  0
   50.5410   53.8970   19.4040 N   0  0  0  0  0  0  0  0  0  0  0  0
   49.6180   53.8270   19.6910 H   0  0  0  0  0  0  0  0  0  0  0  0
   52.2060   53.0860   18.1770 O   0  0  0  0  0  0  0  0  0  0  0  0
   51.3490   54.9330   19.8920 N   0  0  0  0  0  0  0  0  0  0  0  0
   52.2750   54.7580   20.1210 H   0  0  0  0  0  0  0  0  0  0  0  0
   50.8400   56.1710   20.0420 C   0  0  0  0  0  0  0  0  0  0  0  0
   49.5530   56.4140   19.7240 N   0  0  0  0  0  0  0  0  0  0  0  0
   48.9930   55.6970   19.3860 H   0  0  0  0  0  0  0  0  0  0  0  0
   51.5410   57.0700   20.4650 O   0  0  0  0  0  0  0  0  0  0  0  0
   48.9990   57.7600   19.8880 C   0  0  0  0  0  0  0  0  0  0  0  0
   48.4210   57.9060   21.2970 C   0  0  0  0  0  0  0  0  0  0  0  0
   47.8910   57.9840   18.8560 C   0  0  0  0  0  0  0  0  0  0  0  0
   48.4740   48.6910   18.1280 C   0  0  0  0  0  0  0  0  0  0  0  0
   47.1120   48.5940   18.7670 C   0  0  0  0  0  0  0  0  0  0  0  0
   49.0880   47.6810   17.8530 O   0  0  0  0  0  0  0  0  0  0  0  0
   50.3700   50.3650   20.0630 C   0  0  0  0  0  0  0  0  0  0  0  0
   52.7930   49.8450   19.7370 C   0  0  0  0  0  0  0  0  0  0  0  0
   51.4020   49.2410   19.9460 C   0  0  0  0  0  0  0  0  0  0  0  0
  1 24  1  0  0  0  0
  2 21  1  0  0  0  0
  2  1  1  0  0  0  0
  3  5  1  0  0  0  0
  3  2  2  0  0  0  0
  4  3  1  0  0  0  0
  5  7  1  0  0  0  0
  6  5  1  0  0  0  0
  7  8  1  0  0  0  0
  7  1  2  0  0  0  0
  8  9  1  0  0  0  0
  9 10  1  0  0  0  0
  9 12  1  0  0  0  0
 11  8  2  0  0  0  0
 12 14  1  0  0  0  0
 12 13  1  0  0  0  0
 14 17  2  0  0  0  0
 15 18  1  0  0  0  0
 15 14  1  0  0  0  0
 16 15  1  0  0  0  0
 18 19  1  0  0  0  0
 20 18  1  0  0  0  0
 21 22  1  0  0  0  0
 23 21  2  0  0  0  0
 25 26  1  0  0  0  0
 26 24  1  0  0  0  0
M  END
>  <MODEL>
7

>  <REMARK>
  Name = ZINC63268826
                            x       y       z     vdW  Elec       q    Type
                         _______ _______ _______ _____ _____    ______ ____

>  <TORSDO>
F 6

>  <minimizedAffinity>
-6.9588740778549205

$$$$
ZINC63268826
 OpenBabel10211213073D

 26 26  0  0  0  0  0  0  0  0999 V2000
   47.7280   49.4510   17.0620 C   0  0  0  0  0  0  0  0  0  0  0  0
   46.9340   48.2800   17.0410 C   0  0  0  0  0  0  0  0  0  0  0  0
   47.7500   47.2450   16.6120 C   0  0  0  0  0  0  0  0  0  0  0  0
   47.3320   45.8080   16.4360 C   0  0  0  0  0  0  0  0  0  0  0  0
   48.9740   47.7410   16.3810 N   0  0  0  0  0  0  0  0  0  0  0  0
   49.7380   47.2290   16.0720 H   0  0  0  0  0  0  0  0  0  0  0  0
   48.9760   49.0930   16.6470 C   0  0  0  0  0  0  0  0  0  0  0  0
   50.1270   49.9950   16.5080 C   0  0  0  0  0  0  0  0  0  0  0  0
   50.7390   50.4790   17.6070 N   0  0  0  0  0  0  0  0  0  0  0  0
   50.4190   50.2330   18.4890 H   0  0  0  0  0  0  0  0  0  0  0  0
   50.5280   50.3040   15.4020 O   0  0  0  0  0  0  0  0  0  0  0  0
   51.8370   51.3390   17.4760 N   0  0  0  0  0  0  0  0  0  0  0  0
   52.4610   51.2200   16.7430 H   0  0  0  0  0  0  0  0  0  0  0  0
   52.0270   52.3310   18.3680 C   0  0  0  0  0  0  0  0  0  0  0  0
   51.1600   52.4970   19.3860 N   0  0  0  0  0  0  0  0  0  0  0  0
   50.3990   51.9020   19.4770 H   0  0  0  0  0  0  0  0  0  0  0  0
   52.9800   53.0780   18.2530 O   0  0  0  0  0  0  0  0  0  0  0  0
   51.3660   53.5750   20.3560 C   0  0  0  0  0  0  0  0  0  0  0  0
   51.7030   52.9750   21.7230 C   0  0  0  0  0  0  0  0  0  0  0  0
   50.0910   54.4120   20.4670 C   0  0  0  0  0  0  0  0  0  0  0  0
   45.5170   48.1810   17.4050 C   0  0  0  0  0  0  0  0  0  0  0  0
   45.1220   47.6410   18.7550 C   0  0  0  0  0  0  0  0  0  0  0  0
   44.6630   48.5340   16.6190 O   0  0  0  0  0  0  0  0  0  0  0  0
   47.2790   50.8330   17.4610 C   0  0  0  0  0  0  0  0  0  0  0  0
   48.1390   53.1110   16.8960 C   0  0  0  0  0  0  0  0  0  0  0  0
   47.5670   51.8120   16.3220 C   0  0  0  0  0  0  0  0  0  0  0  0
  1 24  1  0  0  0  0
  2  1  1  0  0  0  0
  2 21  1  0  0  0  0
  3  2  2  0  0  0  0
  4  3  1  0  0  0  0
  5  3  1  0  0  0  0
  5  7  1  0  0  0  0
  6  5  1  0  0  0  0
  7  1  2  0  0  0  0
  8  7  1  0  0  0  0
  8  9  1  0  0  0  0
  9 10  1  0  0  0  0
 11  8  2  0  0  0  0
 12  9  1  0  0  0  0
 12 14  1  0  0  0  0
 13 12  1  0  0  0  0
 14 15  1  0  0  0  0
 15 16  1  0  0  0  0
 15 18  1  0  0  0  0
 17 14  2  0  0  0  0
 18 20  1  0  0  0  0
 18 19  1  0  0  0  0
 21 22  1  0  0  0  0
 23 21  2  0  0  0  0
 26 25  1  0  0  0  0
 26 24  1  0  0  0  0
M  END
>  <MODEL>
8

>  <REMARK>
  Name = ZINC63268826
                            x       y       z     vdW  Elec       q    Type
                         _______ _______ _______ _____ _____    ______ ____

>  <TORSDO>
F 6

>  <minimizedAffinity>
-6.8695322998268944

$$$$
ZINC63268826
 OpenBabel10211213073D

 26 26  0  0  0  0  0  0  0  0999 V2000
   47.8250   48.0670   16.9840 C   0  0  0  0  0  0  0  0  0  0  0  0
   46.5230   47.5270   17.1210 C   0  0  0  0  0  0  0  0  0  0  0  0
   46.0980   47.8150   18.4080 C   0  0  0  0  0  0  0  0  0  0  0  0
   44.7680   47.4350   19.0030 C   0  0  0  0  0  0  0  0  0  0  0  0
   47.0730   48.4920   19.0320 N   0  0  0  0  0  0  0  0  0  0  0  0
   47.0350   48.8160   19.9460 H   0  0  0  0  0  0  0  0  0  0  0  0
   48.1400   48.6490   18.1750 C   0  0  0  0  0  0  0  0  0  0  0  0
   49.4030   49.3300   18.4900 C   0  0  0  0  0  0  0  0  0  0  0  0
   49.7250   50.4750   17.8590 N   0  0  0  0  0  0  0  0  0  0  0  0
   49.1250   50.8510   17.1960 H   0  0  0  0  0  0  0  0  0  0  0  0
   50.1570   48.8600   19.3210 O   0  0  0  0  0  0  0  0  0  0  0  0
   50.9290   51.1260   18.1590 N   0  0  0  0  0  0  0  0  0  0  0  0
   51.7630   50.6290   18.1560 H   0  0  0  0  0  0  0  0  0  0  0  0
   50.9310   52.4420   18.4520 C   0  0  0  0  0  0  0  0  0  0  0  0
   49.7730   53.1320   18.4570 N   0  0  0  0  0  0  0  0  0  0  0  0
   48.9390   52.6820   18.2490 H   0  0  0  0  0  0  0  0  0  0  0  0
   51.9760   53.0060   18.7110 O   0  0  0  0  0  0  0  0  0  0  0  0
   49.7740   54.5620   18.7750 C   0  0  0  0  0  0  0  0  0  0  0  0
   49.4250   54.7560   20.2520 C   0  0  0  0  0  0  0  0  0  0  0  0
   48.7380   55.2780   17.9070 C   0  0  0  0  0  0  0  0  0  0  0  0
   45.7680   46.8010   16.0950 C   0  0  0  0  0  0  0  0  0  0  0  0
   44.7390   47.5240   15.2640 C   0  0  0  0  0  0  0  0  0  0  0  0
   45.9720   45.6190   15.9140 O   0  0  0  0  0  0  0  0  0  0  0  0
   48.6980   48.0040   15.7580 C   0  0  0  0  0  0  0  0  0  0  0  0
   49.6460   49.7810   14.2790 C   0  0  0  0  0  0  0  0  0  0  0  0
   48.3550   49.1690   14.8280 C   0  0  0  0  0  0  0  0  0  0  0  0
  1  2  1  0  0  0  0
  1  7  2  0  0  0  0
  2  3  2  0  0  0  0
  3  4  1  0  0  0  0
  3  5  1  0  0  0  0
  5  6  1  0  0  0  0
  7  8  1  0  0  0  0
  7  5  1  0  0  0  0
  8 11  2  0  0  0  0
  9 12  1  0  0  0  0
  9  8  1  0  0  0  0
 10  9  1  0  0  0  0
 12 14  1  0  0  0  0
 13 12  1  0  0  0  0
 14 15  1  0  0  0  0
 14 17  2  0  0  0  0
 15 18  1  0  0  0  0
 16 15  1  0  0  0  0
 18 19  1  0  0  0  0
 20 18  1  0  0  0  0
 21  2  1  0  0  0  0
 22 21  1  0  0  0  0
 23 21  2  0  0  0  0
 24  1  1  0  0  0  0
 25 26  1  0  0  0  0
 26 24  1  0  0  0  0
M  END
>  <MODEL>
9

>  <REMARK>
  Name = ZINC63268826
                            x       y       z     vdW  Elec       q    Type
                         _______ _______ _______ _____ _____    ______ ____

>  <TORSDO>
F 6

>  <minimizedAffinity>
-6.8036719056310542

$$$$
ZINC20294931
 OpenBabel10211213103D

 36 38  0  0  0  0  0  0  0  0999 V2000
   51.7350   53.5600   18.4100 N   0  0  0  0  0  0  0  0  0  0  0  0
   51.3750   53.6700   17.3760 H   0  0  0  0  0  0  0  0  0  0  0  0
   52.1150   52.3500   18.8660 C   0  0  0  0  0  0  0  0  0  0  0  0
   52.5100   52.2290   20.0070 O   0  0  0  0  0  0  0  0  0  0  0  0
   50.0360   57.0600   21.5810 C   0  0  0  0  0  0  0  0  0  0  0  0
   51.0830   56.3640   20.7510 C   0  0  0  0  0  0  0  0  0  0  0  0
   50.7680   55.2520   19.9830 C   0  0  0  0  0  0  0  0  0  0  0  0
   51.7960   54.6620   19.2410 C   0  0  0  0  0  0  0  0  0  0  0  0
   53.1650   55.6570   19.6150 S   0  0  0  0  0  0  0  0  0  0  0  0
   52.3780   56.8050   20.7290 C   0  0  0  0  0  0  0  0  0  0  0  0
   52.9680   57.9430   21.4380 C   0  0  0  0  0  0  0  0  0  0  0  0
   53.6340   57.7440   22.5940 N   0  0  0  0  0  0  0  0  0  0  0  0
   53.7320   56.7280   23.0040 H   0  0  0  0  0  0  0  0  0  0  0  0
   54.0760   58.5980   23.1270 H   0  0  0  0  0  0  0  0  0  0  0  0
   52.8580   59.0660   20.9850 O   0  0  0  0  0  0  0  0  0  0  0  0
   49.4030   54.7140   19.9520 C   0  0  0  0  0  0  0  0  0  0  0  0
   49.1670   53.6280   20.4460 O   0  0  0  0  0  0  0  0  0  0  0  0
   48.4120   55.4230   19.3760 O   0  0  0  0  0  0  0  0  0  0  0  0
   48.7060   56.0540   18.1020 C   0  0  0  0  0  0  0  0  0  0  0  0
   47.9360   57.3700   17.9960 C   0  0  0  0  0  0  0  0  0  0  0  0
   48.2860   55.1230   16.9630 C   0  0  0  0  0  0  0  0  0  0  0  0
   52.0480   51.1480   17.9590 C   0  0  0  0  0  0  0  0  0  0  0  0
   50.7120   51.0630   17.3550 N   0  0  0  0  0  0  0  0  0  0  0  0
   50.3780   52.0850   17.1220 H   0  0  0  0  0  0  0  0  0  0  0  0
   49.7450   50.4820   18.2970 C   0  0  0  0  0  0  0  0  0  0  0  0
   48.3370   50.5770   17.7000 C   0  0  0  0  0  0  0  0  0  0  0  0
   48.3520   49.9610   16.3650 N   0  0  0  0  0  0  0  0  0  0  0  0
   47.4460   49.0230   16.0260 C   0  0  0  0  0  0  0  0  0  0  0  0
   47.4300   48.5730   14.8950 O   0  0  0  0  0  0  0  0  0  0  0  0
   49.3830   50.3950   15.4100 C   0  0  0  0  0  0  0  0  0  0  0  0
   50.7500   50.3070   16.0970 C   0  0  0  0  0  0  0  0  0  0  0  0
   46.4800   48.5440   17.0200 C   0  0  0  0  0  0  0  0  0  0  0  0
   45.1330   48.7690   17.0030 C   0  0  0  0  0  0  0  0  0  0  0  0
   44.6020   48.1330   18.1360 C   0  0  0  0  0  0  0  0  0  0  0  0
   45.6350   47.5540   18.7860 C   0  0  0  0  0  0  0  0  0  0  0  0
   46.7640   47.7990   18.1080 O   0  0  0  0  0  0  0  0  0  0  0  0
  1  3  1  0  0  0  0
  1  8  1  0  0  0  0
  2  1  1  0  0  0  0
  3  4  2  0  0  0  0
  6  5  1  0  0  0  0
  7  6  1  0  0  0  0
  8  9  1  0  0  0  0
  8  7  2  0  0  0  0
  9 10  1  0  0  0  0
 10  6  2  0  0  0  0
 10 11  1  0  0  0  0
 11 12  1  0  0  0  0
 12 13  1  0  0  0  0
 12 14  1  0  0  0  0
 15 11  2  0  0  0  0
 16  7  1  0  0  0  0
 16 17  2  0  0  0  0
 18 16  1  0  0  0  0
 19 18  1  0  0  0  0
 20 19  1  0  0  0  0
 21 19  1  0  0  0  0
 22  3  1  0  0  0  0
 23 22  1  0  0  0  0
 23 25  1  0  0  0  0
 24 23  1  0  0  0  0
 26 25  1  0  0  0  0
 27 26  1  0  0  0  0
 28 27  1  0  0  0  0
 28 32  1  0  0  0  0
 29 28  2  0  0  0  0
 30 31  1  0  0  0  0
 30 27  1  0  0  0  0
 31 23  1  0  0  0  0
 32 36  1  0  0  0  0
 33 32  2  0  0  0  0
 33 34  1  0  0  0  0
 34 35  2  0  0  0  0
 36 35  1  0  0  0  0
M  END
>  <MODEL>
1

>  <REMARK>
  Name = ZINC20294931
                            x       y       z     vdW  Elec       q    Type
                         _______ _______ _______ _____ _____    ______ ____

>  <TORSDO>
F 8

>  <minimizedAffinity>
-7.8582507117853346

$$$$
ZINC20294931
 OpenBabel10211213103D

 36 38  0  0  0  0  0  0  0  0999 V2000
   49.7090   49.3500   15.8110 N   0  0  0  0  0  0  0  0  0  0  0  0
   50.6480   48.8020   15.6480 H   0  0  0  0  0  0  0  0  0  0  0  0
   49.6720   50.3820   16.6760 C   0  0  0  0  0  0  0  0  0  0  0  0
   48.6350   50.9860   16.8560 O   0  0  0  0  0  0  0  0  0  0  0  0
   45.4560   46.8300   14.9400 C   0  0  0  0  0  0  0  0  0  0  0  0
   46.5350   47.8340   14.6280 C   0  0  0  0  0  0  0  0  0  0  0  0
   47.6050   48.0290   15.4890 C   0  0  0  0  0  0  0  0  0  0  0  0
   48.5650   48.9790   15.1280 C   0  0  0  0  0  0  0  0  0  0  0  0
   47.9730   49.5740   13.6120 S   0  0  0  0  0  0  0  0  0  0  0  0
   46.4940   48.5860   13.4860 C   0  0  0  0  0  0  0  0  0  0  0  0
   45.4880   48.5770   12.4210 C   0  0  0  0  0  0  0  0  0  0  0  0
   45.8520   48.3010   11.1530 N   0  0  0  0  0  0  0  0  0  0  0  0
   46.9050   48.0840   10.9180 H   0  0  0  0  0  0  0  0  0  0  0  0
   45.0980   48.2950   10.3530 H   0  0  0  0  0  0  0  0  0  0  0  0
   44.3240   48.8170   12.6810 O   0  0  0  0  0  0  0  0  0  0  0  0
   47.7250   47.2630   16.7350 C   0  0  0  0  0  0  0  0  0  0  0  0
   48.8190   46.9040   17.1250 O   0  0  0  0  0  0  0  0  0  0  0  0
   46.6220   46.9600   17.4490 O   0  0  0  0  0  0  0  0  0  0  0  0
   46.2250   47.9000   18.4820 C   0  0  0  0  0  0  0  0  0  0  0  0
   45.1200   47.2790   19.3380 C   0  0  0  0  0  0  0  0  0  0  0  0
   45.7080   49.1840   17.8320 C   0  0  0  0  0  0  0  0  0  0  0  0
   50.9180   50.7870   17.4200 C   0  0  0  0  0  0  0  0  0  0  0  0
   50.5510   51.6010   18.5860 N   0  0  0  0  0  0  0  0  0  0  0  0
   49.4600   51.5330   18.7180 H   0  0  0  0  0  0  0  0  0  0  0  0
   50.8860   53.0140   18.3680 C   0  0  0  0  0  0  0  0  0  0  0  0
   50.3270   53.8520   19.5230 C   0  0  0  0  0  0  0  0  0  0  0  0
   50.8110   53.2850   20.7900 N   0  0  0  0  0  0  0  0  0  0  0  0
   51.4050   54.0660   21.7150 C   0  0  0  0  0  0  0  0  0  0  0  0
   51.7380   53.5950   22.7860 O   0  0  0  0  0  0  0  0  0  0  0  0
   50.6340   51.8430   21.0210 C   0  0  0  0  0  0  0  0  0  0  0  0
   51.1820   51.0850   19.8080 C   0  0  0  0  0  0  0  0  0  0  0  0
   51.6480   55.4840   21.4300 C   0  0  0  0  0  0  0  0  0  0  0  0
   50.8500   56.5260   21.8070 C   0  0  0  0  0  0  0  0  0  0  0  0
   51.4590   57.6960   21.3270 C   0  0  0  0  0  0  0  0  0  0  0  0
   52.5880   57.3210   20.6850 C   0  0  0  0  0  0  0  0  0  0  0  0
   52.7010   55.9880   20.7540 O   0  0  0  0  0  0  0  0  0  0  0  0
  1  3  1  0  0  0  0
  2  1  1  0  0  0  0
  3  4  2  0  0  0  0
  3 22  1  0  0  0  0
  6  5  1  0  0  0  0
  6  7  1  0  0  0  0
  7 16  1  0  0  0  0
  8  7  2  0  0  0  0
  8  1  1  0  0  0  0
  9  8  1  0  0  0  0
 10  9  1  0  0  0  0
 10  6  2  0  0  0  0
 11 15  2  0  0  0  0
 11 10  1  0  0  0  0
 12 11  1  0  0  0  0
 13 12  1  0  0  0  0
 14 12  1  0  0  0  0
 16 17  2  0  0  0  0
 16 18  1  0  0  0  0
 18 19  1  0  0  0  0
 19 20  1  0  0  0  0
 21 19  1  0  0  0  0
 22 23  1  0  0  0  0
 23 24  1  0  0  0  0
 23 31  1  0  0  0  0
 25 23  1  0  0  0  0
 25 26  1  0  0  0  0
 26 27  1  0  0  0  0
 27 30  1  0  0  0  0
 27 28  1  0  0  0  0
 28 29  2  0  0  0  0
 31 30  1  0  0  0  0
 32 28  1  0  0  0  0
 32 33  2  0  0  0  0
 34 33  1  0  0  0  0
 35 36  1  0  0  0  0
 35 34  2  0  0  0  0
 36 32  1  0  0  0  0
M  END
>  <MODEL>
2

>  <REMARK>
  Name = ZINC20294931
                            x       y       z     vdW  Elec       q    Type
                         _______ _______ _______ _____ _____    ______ ____

>  <TORSDO>
F 8

>  <minimizedAffinity>
-7.6874187880690856

$$$$
ZINC20294931
 OpenBabel10211213103D

 36 38  0  0  0  0  0  0  0  0999 V2000
   50.8770   52.7290   18.0130 N   0  0  0  0  0  0  0  0  0  0  0  0
   51.1420   53.0840   17.0060 H   0  0  0  0  0  0  0  0  0  0  0  0
   50.5300   51.4410   18.2040 C   0  0  0  0  0  0  0  0  0  0  0  0
   50.2360   51.0510   19.3150 O   0  0  0  0  0  0  0  0  0  0  0  0
   49.4390   56.6300   20.8250 C   0  0  0  0  0  0  0  0  0  0  0  0
   50.2910   55.4340   20.4840 C   0  0  0  0  0  0  0  0  0  0  0  0
   50.0660   54.7010   19.3280 C   0  0  0  0  0  0  0  0  0  0  0  0
   50.9000   53.6050   19.0820 C   0  0  0  0  0  0  0  0  0  0  0  0
   51.9720   53.6190   20.4420 S   0  0  0  0  0  0  0  0  0  0  0  0
   51.3110   55.0350   21.3020 C   0  0  0  0  0  0  0  0  0  0  0  0
   51.7550   55.6270   22.5660 C   0  0  0  0  0  0  0  0  0  0  0  0
   52.2970   56.8610   22.5780 N   0  0  0  0  0  0  0  0  0  0  0  0
   52.4070   57.4230   21.6380 H   0  0  0  0  0  0  0  0  0  0  0  0
   52.6310   57.3060   23.5260 H   0  0  0  0  0  0  0  0  0  0  0  0
   51.6330   55.0060   23.6050 O   0  0  0  0  0  0  0  0  0  0  0  0
   48.9910   55.0620   18.3960 C   0  0  0  0  0  0  0  0  0  0  0  0
   48.0640   54.2980   18.2130 O   0  0  0  0  0  0  0  0  0  0  0  0
   49.0330   56.2410   17.7440 O   0  0  0  0  0  0  0  0  0  0  0  0
   47.8010   56.6940   17.1220 C   0  0  0  0  0  0  0  0  0  0  0  0
   47.9530   56.6490   15.6010 C   0  0  0  0  0  0  0  0  0  0  0  0
   47.5050   58.1280   17.5640 C   0  0  0  0  0  0  0  0  0  0  0  0
   50.5050   50.4860   17.0390 C   0  0  0  0  0  0  0  0  0  0  0  0
   49.3670   49.5690   17.1800 N   0  0  0  0  0  0  0  0  0  0  0  0
   49.6420   48.7950   17.9130 H   0  0  0  0  0  0  0  0  0  0  0  0
   49.0740   48.8940   15.9080 C   0  0  0  0  0  0  0  0  0  0  0  0
   48.0050   47.8200   16.1390 C   0  0  0  0  0  0  0  0  0  0  0  0
   46.8470   48.4460   16.7930 N   0  0  0  0  0  0  0  0  0  0  0  0
   45.6020   48.2830   16.3000 C   0  0  0  0  0  0  0  0  0  0  0  0
   44.6480   48.7500   16.8920 O   0  0  0  0  0  0  0  0  0  0  0  0
   47.0810   49.2550   17.9990 C   0  0  0  0  0  0  0  0  0  0  0  0
   48.1850   50.2720   17.6950 C   0  0  0  0  0  0  0  0  0  0  0  0
   45.4000   47.5430   15.0510 C   0  0  0  0  0  0  0  0  0  0  0  0
   45.5270   48.0500   13.7890 C   0  0  0  0  0  0  0  0  0  0  0  0
   45.2450   47.0000   12.9010 C   0  0  0  0  0  0  0  0  0  0  0  0
   44.9620   45.9120   13.6510 C   0  0  0  0  0  0  0  0  0  0  0  0
   45.0630   46.2420   14.9450 O   0  0  0  0  0  0  0  0  0  0  0  0
  1  3  1  0  0  0  0
  1  8  1  0  0  0  0
  2  1  1  0  0  0  0
  3  4  2  0  0  0  0
  6  5  1  0  0  0  0
  6 10  2  0  0  0  0
  7  6  1  0  0  0  0
  8  7  2  0  0  0  0
  8  9  1  0  0  0  0
  9 10  1  0  0  0  0
 10 11  1  0  0  0  0
 11 12  1  0  0  0  0
 11 15  2  0  0  0  0
 12 14  1  0  0  0  0
 13 12  1  0  0  0  0
 16  7  1  0  0  0  0
 17 16  2  0  0  0  0
 18 16  1  0  0  0  0
 19 21  1  0  0  0  0
 19 18  1  0  0  0  0
 20 19  1  0  0  0  0
 22 23  1  0  0  0  0
 22  3  1  0  0  0  0
 23 31  1  0  0  0  0
 23 24  1  0  0  0  0
 25 26  1  0  0  0  0
 25 23  1  0  0  0  0
 26 27  1  0  0  0  0
 27 30  1  0  0  0  0
 28 27  1  0  0  0  0
 28 29  2  0  0  0  0
 31 30  1  0  0  0  0
 32 28  1  0  0  0  0
 33 32  2  0  0  0  0
 34 35  2  0  0  0  0
 34 33  1  0  0  0  0
 35 36  1  0  0  0  0
 36 32  1  0  0  0  0
M  END
>  <MODEL>
3

>  <REMARK>
  Name = ZINC20294931
                            x       y       z     vdW  Elec       q    Type
                         _______ _______ _______ _____ _____    ______ ____

>  <TORSDO>
F 8

>  <minimizedAffinity>
-7.5773042518190392

$$$$
ZINC20294931
 OpenBabel10211213103D

 36 38  0  0  0  0  0  0  0  0999 V2000
   46.1680   60.3250   19.3960 N   0  0  0  0  0  0  0  0  0  0  0  0
   45.3900   60.2280   20.1680 H   0  0  0  0  0  0  0  0  0  0  0  0
   47.1770   59.4330   19.3410 C   0  0  0  0  0  0  0  0  0  0  0  0
   48.0360   59.5410   18.4910 O   0  0  0  0  0  0  0  0  0  0  0  0
   44.6940   62.7800   15.2730 C   0  0  0  0  0  0  0  0  0  0  0  0
   45.4710   62.6040   16.5530 C   0  0  0  0  0  0  0  0  0  0  0  0
   45.3560   61.4470   17.3090 C   0  0  0  0  0  0  0  0  0  0  0  0
   46.1110   61.3610   18.4830 C   0  0  0  0  0  0  0  0  0  0  0  0
   46.9600   62.8710   18.5110 S   0  0  0  0  0  0  0  0  0  0  0  0
   46.3130   63.5810   17.0090 C   0  0  0  0  0  0  0  0  0  0  0  0
   46.6140   64.8820   16.4080 C   0  0  0  0  0  0  0  0  0  0  0  0
   47.4060   64.9550   15.3200 N   0  0  0  0  0  0  0  0  0  0  0  0
   47.8270   64.0370   14.8830 H   0  0  0  0  0  0  0  0  0  0  0  0
   47.6330   65.9320   14.8690 H   0  0  0  0  0  0  0  0  0  0  0  0
   46.1490   65.8980   16.8910 O   0  0  0  0  0  0  0  0  0  0  0  0
   44.4740   60.3510   16.8910 C   0  0  0  0  0  0  0  0  0  0  0  0
   43.3020   60.3590   17.2130 O   0  0  0  0  0  0  0  0  0  0  0  0
   44.9630   59.3380   16.1480 O   0  0  0  0  0  0  0  0  0  0  0  0
   44.3180   59.0840   14.8730 C   0  0  0  0  0  0  0  0  0  0  0  0
   43.6570   57.7050   14.9030 C   0  0  0  0  0  0  0  0  0  0  0  0
   45.3630   59.1240   13.7560 C   0  0  0  0  0  0  0  0  0  0  0  0
   47.2390   58.3030   20.3360 C   0  0  0  0  0  0  0  0  0  0  0  0
   48.6120   57.7850   20.4040 N   0  0  0  0  0  0  0  0  0  0  0  0
   49.2220   58.3410   19.6760 H   0  0  0  0  0  0  0  0  0  0  0  0
   48.6570   56.3640   20.0310 C   0  0  0  0  0  0  0  0  0  0  0  0
   50.1180   55.9110   19.9380 C   0  0  0  0  0  0  0  0  0  0  0  0
   50.7920   56.2440   21.2010 N   0  0  0  0  0  0  0  0  0  0  0  0
   51.4980   55.3140   21.8750 C   0  0  0  0  0  0  0  0  0  0  0  0
   52.1060   55.6240   22.8830 O   0  0  0  0  0  0  0  0  0  0  0  0
   50.6760   57.6190   21.7110 C   0  0  0  0  0  0  0  0  0  0  0  0
   49.1930   58.0050   21.7340 C   0  0  0  0  0  0  0  0  0  0  0  0
   51.5310   53.9290   21.3950 C   0  0  0  0  0  0  0  0  0  0  0  0
   50.8370   52.8790   21.9240 C   0  0  0  0  0  0  0  0  0  0  0  0
   51.1660   51.7500   21.1580 C   0  0  0  0  0  0  0  0  0  0  0  0
   52.0350   52.1550   20.2060 C   0  0  0  0  0  0  0  0  0  0  0  0
   52.2490   53.4700   20.3490 O   0  0  0  0  0  0  0  0  0  0  0  0
  1  2  1  0  0  0  0
  3  1  1  0  0  0  0
  3 22  1  0  0  0  0
  4  3  2  0  0  0  0
  5  6  1  0  0  0  0
  6 10  2  0  0  0  0
  6  7  1  0  0  0  0
  7  8  2  0  0  0  0
  8  9  1  0  0  0  0
  8  1  1  0  0  0  0
 10  9  1  0  0  0  0
 11 15  2  0  0  0  0
 11 10  1  0  0  0  0
 12 11  1  0  0  0  0
 13 12  1  0  0  0  0
 14 12  1  0  0  0  0
 16 17  2  0  0  0  0
 16  7  1  0  0  0  0
 18 16  1  0  0  0  0
 19 20  1  0  0  0  0
 19 18  1  0  0  0  0
 21 19  1  0  0  0  0
 22 23  1  0  0  0  0
 23 31  1  0  0  0  0
 24 23  1  0  0  0  0
 25 23  1  0  0  0  0
 26 25  1  0  0  0  0
 26 27  1  0  0  0  0
 27 30  1  0  0  0  0
 27 28  1  0  0  0  0
 28 29  2  0  0  0  0
 30 31  1  0  0  0  0
 32 28  1  0  0  0  0
 32 33  2  0  0  0  0
 34 33  1  0  0  0  0
 35 36  1  0  0  0  0
 35 34  2  0  0  0  0
 36 32  1  0  0  0  0
M  END
>  <MODEL>
4

>  <REMARK>
  Name = ZINC20294931
                            x       y       z     vdW  Elec       q    Type
                         _______ _______ _______ _____ _____    ______ ____

>  <TORSDO>
F 8

>  <minimizedAffinity>
-7.4349250225400532

$$$$
ZINC20294931
 OpenBabel10211213103D

 36 38  0  0  0  0  0  0  0  0999 V2000
   46.2450   60.3040   19.4940 N   0  0  0  0  0  0  0  0  0  0  0  0
   45.5360   60.2430   20.3330 H   0  0  0  0  0  0  0  0  0  0  0  0
   47.1710   59.3410   19.3220 C   0  0  0  0  0  0  0  0  0  0  0  0
   47.9530   59.4090   18.3970 O   0  0  0  0  0  0  0  0  0  0  0  0
   44.3170   63.2490   15.9160 C   0  0  0  0  0  0  0  0  0  0  0  0
   45.3530   62.8300   16.9260 C   0  0  0  0  0  0  0  0  0  0  0  0
   45.1790   61.6940   17.7030 C   0  0  0  0  0  0  0  0  0  0  0  0
   46.1870   61.3710   18.6170 C   0  0  0  0  0  0  0  0  0  0  0  0
   47.3480   62.6350   18.3770 S   0  0  0  0  0  0  0  0  0  0  0  0
   46.4990   63.5550   17.1080 C   0  0  0  0  0  0  0  0  0  0  0  0
   46.9240   64.7780   16.4250 C   0  0  0  0  0  0  0  0  0  0  0  0
   47.5250   64.7040   15.2200 N   0  0  0  0  0  0  0  0  0  0  0  0
   47.6960   63.7230   14.7510 H   0  0  0  0  0  0  0  0  0  0  0  0
   47.8450   65.6220   14.7070 H   0  0  0  0  0  0  0  0  0  0  0  0
   46.7350   65.8620   16.9440 O   0  0  0  0  0  0  0  0  0  0  0  0
   43.9790   60.8600   17.5710 C   0  0  0  0  0  0  0  0  0  0  0  0
   43.8230   60.1720   16.5810 O   0  0  0  0  0  0  0  0  0  0  0  0
   43.0480   60.8580   18.5470 O   0  0  0  0  0  0  0  0  0  0  0  0
   42.0910   61.9490   18.5480 C   0  0  0  0  0  0  0  0  0  0  0  0
   42.3840   62.8820   19.7240 C   0  0  0  0  0  0  0  0  0  0  0  0
   40.6760   61.3840   18.6840 C   0  0  0  0  0  0  0  0  0  0  0  0
   47.2340   58.1770   20.2780 C   0  0  0  0  0  0  0  0  0  0  0  0
   48.6120   57.6720   20.3440 N   0  0  0  0  0  0  0  0  0  0  0  0
   49.2080   58.2080   19.5900 H   0  0  0  0  0  0  0  0  0  0  0  0
   48.6630   56.2400   20.0170 C   0  0  0  0  0  0  0  0  0  0  0  0
   50.1260   55.7950   19.9200 C   0  0  0  0  0  0  0  0  0  0  0  0
   50.8140   56.1750   21.1620 N   0  0  0  0  0  0  0  0  0  0  0  0
   51.5360   55.2720   21.8570 C   0  0  0  0  0  0  0  0  0  0  0  0
   52.1550   55.6190   22.8460 O   0  0  0  0  0  0  0  0  0  0  0  0
   50.6930   57.5640   21.6290 C   0  0  0  0  0  0  0  0  0  0  0  0
   49.2080   57.9400   21.6590 C   0  0  0  0  0  0  0  0  0  0  0  0
   51.5750   53.8730   21.4210 C   0  0  0  0  0  0  0  0  0  0  0  0
   50.8620   52.8430   21.9650 C   0  0  0  0  0  0  0  0  0  0  0  0
   51.2040   51.6880   21.2430 C   0  0  0  0  0  0  0  0  0  0  0  0
   52.1000   52.0600   20.3020 C   0  0  0  0  0  0  0  0  0  0  0  0
   52.3160   53.3780   20.4090 O   0  0  0  0  0  0  0  0  0  0  0  0
  1  2  1  0  0  0  0
  3  1  1  0  0  0  0
  3 22  1  0  0  0  0
  4  3  2  0  0  0  0
  5  6  1  0  0  0  0
  6 10  2  0  0  0  0
  6  7  1  0  0  0  0
  7  8  2  0  0  0  0
  8  1  1  0  0  0  0
  9  8  1  0  0  0  0
 10  9  1  0  0  0  0
 11 15  2  0  0  0  0
 11 10  1  0  0  0  0
 12 11  1  0  0  0  0
 13 12  1  0  0  0  0
 14 12  1  0  0  0  0
 16  7  1  0  0  0  0
 16 18  1  0  0  0  0
 17 16  2  0  0  0  0
 18 19  1  0  0  0  0
 19 21  1  0  0  0  0
 19 20  1  0  0  0  0
 22 23  1  0  0  0  0
 23 31  1  0  0  0  0
 24 23  1  0  0  0  0
 25 23  1  0  0  0  0
 26 25  1  0  0  0  0
 26 27  1  0  0  0  0
 27 30  1  0  0  0  0
 27 28  1  0  0  0  0
 28 29  2  0  0  0  0
 30 31  1  0  0  0  0
 32 28  1  0  0  0  0
 32 33  2  0  0  0  0
 34 33  1  0  0  0  0
 35 36  1  0  0  0  0
 35 34  2  0  0  0  0
 36 32  1  0  0  0  0
M  END
>  <MODEL>
5

>  <REMARK>
  Name = ZINC20294931
                            x       y       z     vdW  Elec       q    Type
                         _______ _______ _______ _____ _____    ______ ____

>  <TORSDO>
F 8

>  <minimizedAffinity>
-7.3921056287720202

$$$$
ZINC20294931
 OpenBabel10211213103D

 36 38  0  0  0  0  0  0  0  0999 V2000
   50.1390   55.8110   18.3810 N   0  0  0  0  0  0  0  0  0  0  0  0
   50.8460   56.5500   17.9750 H   0  0  0  0  0  0  0  0  0  0  0  0
   48.8400   55.8570   18.0290 C   0  0  0  0  0  0  0  0  0  0  0  0
   48.0600   55.0430   18.4790 O   0  0  0  0  0  0  0  0  0  0  0  0
   51.5740   53.8420   22.7700 C   0  0  0  0  0  0  0  0  0  0  0  0
   51.2800   53.8130   21.2920 C   0  0  0  0  0  0  0  0  0  0  0  0
   50.8340   54.9460   20.6270 C   0  0  0  0  0  0  0  0  0  0  0  0
   50.5850   54.8370   19.2550 C   0  0  0  0  0  0  0  0  0  0  0  0
   50.9770   53.1840   18.9180 S   0  0  0  0  0  0  0  0  0  0  0  0
   51.4450   52.6700   20.5600 C   0  0  0  0  0  0  0  0  0  0  0  0
   51.8990   51.3520   21.0120 C   0  0  0  0  0  0  0  0  0  0  0  0
   51.0910   50.5840   21.7700 N   0  0  0  0  0  0  0  0  0  0  0  0
   50.0900   50.9480   22.0500 H   0  0  0  0  0  0  0  0  0  0  0  0
   51.4320   49.5960   22.1100 H   0  0  0  0  0  0  0  0  0  0  0  0
   53.0050   50.9510   20.7030 O   0  0  0  0  0  0  0  0  0  0  0  0
   50.6310   56.2130   21.3380 C   0  0  0  0  0  0  0  0  0  0  0  0
   49.5130   56.6770   21.4460 O   0  0  0  0  0  0  0  0  0  0  0  0
   51.6850   56.8630   21.8720 O   0  0  0  0  0  0  0  0  0  0  0  0
   52.3790   57.8100   21.0180 C   0  0  0  0  0  0  0  0  0  0  0  0
   53.6580   57.1680   20.4800 C   0  0  0  0  0  0  0  0  0  0  0  0
   52.7350   59.0590   21.8260 C   0  0  0  0  0  0  0  0  0  0  0  0
   48.3540   56.9190   17.0760 C   0  0  0  0  0  0  0  0  0  0  0  0
   47.5000   57.8720   17.7970 N   0  0  0  0  0  0  0  0  0  0  0  0
   46.6860   57.3050   18.2740 H   0  0  0  0  0  0  0  0  0  0  0  0
   46.8900   58.8360   16.8720 C   0  0  0  0  0  0  0  0  0  0  0  0
   45.8710   59.6930   17.6320 C   0  0  0  0  0  0  0  0  0  0  0  0
   46.5390   60.2870   18.8000 N   0  0  0  0  0  0  0  0  0  0  0  0
   46.4660   61.6120   19.0380 C   0  0  0  0  0  0  0  0  0  0  0  0
   46.9660   62.0770   20.0450 O   0  0  0  0  0  0  0  0  0  0  0  0
   47.2890   59.3980   19.7000 C   0  0  0  0  0  0  0  0  0  0  0  0
   48.2510   58.5530   18.8590 C   0  0  0  0  0  0  0  0  0  0  0  0
   45.7850   62.4920   18.0840 C   0  0  0  0  0  0  0  0  0  0  0  0
   44.5170   62.9830   18.2100 C   0  0  0  0  0  0  0  0  0  0  0  0
   44.2750   63.7740   17.0760 C   0  0  0  0  0  0  0  0  0  0  0  0
   45.3930   63.7320   16.3170 C   0  0  0  0  0  0  0  0  0  0  0  0
   46.3020   62.9620   16.9310 O   0  0  0  0  0  0  0  0  0  0  0  0
  1  8  1  0  0  0  0
  2  1  1  0  0  0  0
  3  1  1  0  0  0  0
  3  4  2  0  0  0  0
  6  5  1  0  0  0  0
  7  6  1  0  0  0  0
  7 16  1  0  0  0  0
  8  7  2  0  0  0  0
  9  8  1  0  0  0  0
  9 10  1  0  0  0  0
 10 11  1  0  0  0  0
 10  6  2  0  0  0  0
 11 12  1  0  0  0  0
 12 13  1  0  0  0  0
 12 14  1  0  0  0  0
 15 11  2  0  0  0  0
 16 17  2  0  0  0  0
 16 18  1  0  0  0  0
 19 21  1  0  0  0  0
 19 18  1  0  0  0  0
 20 19  1  0  0  0  0
 22 23  1  0  0  0  0
 22  3  1  0  0  0  0
 23 24  1  0  0  0  0
 23 31  1  0  0  0  0
 25 26  1  0  0  0  0
 25 23  1  0  0  0  0
 26 27  1  0  0  0  0
 27 28  1  0  0  0  0
 27 30  1  0  0  0  0
 28 29  2  0  0  0  0
 31 30  1  0  0  0  0
 32 33  2  0  0  0  0
 32 28  1  0  0  0  0
 34 33  1  0  0  0  0
 35 36  1  0  0  0  0
 35 34  2  0  0  0  0
 36 32  1  0  0  0  0
M  END
>  <MODEL>
6

>  <REMARK>
  Name = ZINC20294931
                            x       y       z     vdW  Elec       q    Type
                         _______ _______ _______ _____ _____    ______ ____

>  <TORSDO>
F 8

>  <minimizedAffinity>
-7.199109273595595

$$$$
ZINC20294931
 OpenBabel10211213103D

 36 38  0  0  0  0  0  0  0  0999 V2000
   48.4010   49.0680   16.2220 N   0  0  0  0  0  0  0  0  0  0  0  0
   48.2200   48.6530   17.2240 H   0  0  0  0  0  0  0  0  0  0  0  0
   49.4320   49.9110   16.0180 C   0  0  0  0  0  0  0  0  0  0  0  0
   49.6310   50.3700   14.9120 O   0  0  0  0  0  0  0  0  0  0  0  0
   44.9230   46.4230   13.7510 C   0  0  0  0  0  0  0  0  0  0  0  0
   45.9300   47.5320   13.9200 C   0  0  0  0  0  0  0  0  0  0  0  0
   46.6560   47.6700   15.0940 C   0  0  0  0  0  0  0  0  0  0  0  0
   47.5710   48.7240   15.1720 C   0  0  0  0  0  0  0  0  0  0  0  0
   47.4110   49.4920   13.6270 S   0  0  0  0  0  0  0  0  0  0  0  0
   46.1590   48.4370   12.9210 C   0  0  0  0  0  0  0  0  0  0  0  0
   45.5360   48.5160   11.5970 C   0  0  0  0  0  0  0  0  0  0  0  0
   44.4320   49.2680   11.4160 N   0  0  0  0  0  0  0  0  0  0  0  0
   43.9990   49.8220   12.2620 H   0  0  0  0  0  0  0  0  0  0  0  0
   43.9640   49.3270   10.4230 H   0  0  0  0  0  0  0  0  0  0  0  0
   46.0160   47.9030   10.6610 O   0  0  0  0  0  0  0  0  0  0  0  0
   46.4690   46.7410   16.2150 C   0  0  0  0  0  0  0  0  0  0  0  0
   47.2930   45.8720   16.4270 O   0  0  0  0  0  0  0  0  0  0  0  0
   45.3850   46.8510   17.0090 O   0  0  0  0  0  0  0  0  0  0  0  0
   45.4950   47.7340   18.1560 C   0  0  0  0  0  0  0  0  0  0  0  0
   44.6400   47.1900   19.3010 C   0  0  0  0  0  0  0  0  0  0  0  0
   45.0050   49.1310   17.7720 C   0  0  0  0  0  0  0  0  0  0  0  0
   50.3380   50.2850   17.1620 C   0  0  0  0  0  0  0  0  0  0  0  0
   50.2220   51.7250   17.4300 N   0  0  0  0  0  0  0  0  0  0  0  0
   50.5710   52.2660   16.5370 H   0  0  0  0  0  0  0  0  0  0  0  0
   51.0790   52.1220   18.5550 C   0  0  0  0  0  0  0  0  0  0  0  0
   51.0690   53.6490   18.6850 C   0  0  0  0  0  0  0  0  0  0  0  0
   49.6730   54.1010   18.7760 N   0  0  0  0  0  0  0  0  0  0  0  0
   49.2760   54.9250   19.7670 C   0  0  0  0  0  0  0  0  0  0  0  0
   48.1340   55.3440   19.7880 O   0  0  0  0  0  0  0  0  0  0  0  0
   48.7210   53.6310   17.7580 C   0  0  0  0  0  0  0  0  0  0  0  0
   48.8230   52.1050   17.6640 C   0  0  0  0  0  0  0  0  0  0  0  0
   50.2200   55.3140   20.8190 C   0  0  0  0  0  0  0  0  0  0  0  0
   50.6070   56.5890   21.1180 C   0  0  0  0  0  0  0  0  0  0  0  0
   51.5140   56.4960   22.1850 C   0  0  0  0  0  0  0  0  0  0  0  0
   51.6400   55.1850   22.4860 C   0  0  0  0  0  0  0  0  0  0  0  0
   50.8550   54.4760   21.6640 O   0  0  0  0  0  0  0  0  0  0  0  0
  1  2  1  0  0  0  0
  3  1  1  0  0  0  0
  3 22  1  0  0  0  0
  4  3  2  0  0  0  0
  5  6  1  0  0  0  0
  6  7  1  0  0  0  0
  7  8  2  0  0  0  0
  7 16  1  0  0  0  0
  8  1  1  0  0  0  0
  9  8  1  0  0  0  0
 10  9  1  0  0  0  0
 10  6  2  0  0  0  0
 11 10  1  0  0  0  0
 12 11  1  0  0  0  0
 12 13  1  0  0  0  0
 14 12  1  0  0  0  0
 15 11  2  0  0  0  0
 16 17  2  0  0  0  0
 16 18  1  0  0  0  0
 18 19  1  0  0  0  0
 19 20  1  0  0  0  0
 21 19  1  0  0  0  0
 22 23  1  0  0  0  0
 23 31  1  0  0  0  0
 23 25  1  0  0  0  0
 24 23  1  0  0  0  0
 25 26  1  0  0  0  0
 26 27  1  0  0  0  0
 27 28  1  0  0  0  0
 28 29  2  0  0  0  0
 28 32  1  0  0  0  0
 30 27  1  0  0  0  0
 31 30  1  0  0  0  0
 32 33  2  0  0  0  0
 32 36  1  0  0  0  0
 33 34  1  0  0  0  0
 34 35  2  0  0  0  0
 36 35  1  0  0  0  0
M  END
>  <MODEL>
7

>  <REMARK>
  Name = ZINC20294931
                            x       y       z     vdW  Elec       q    Type
                         _______ _______ _______ _____ _____    ______ ____

>  <TORSDO>
F 8

>  <minimizedAffinity>
-7.1267343424963165

$$$$
ZINC20294931
 OpenBabel10211213103D

 36 38  0  0  0  0  0  0  0  0999 V2000
   48.4200   58.5610   19.2330 N   0  0  0  0  0  0  0  0  0  0  0  0
   49.4540   58.5920   18.8590 H   0  0  0  0  0  0  0  0  0  0  0  0
   48.1070   57.7820   20.2870 C   0  0  0  0  0  0  0  0  0  0  0  0
   46.9660   57.7470   20.6980 O   0  0  0  0  0  0  0  0  0  0  0  0
   45.1640   59.8910   15.6520 C   0  0  0  0  0  0  0  0  0  0  0  0
   45.8680   60.0320   16.9770 C   0  0  0  0  0  0  0  0  0  0  0  0
   46.8350   59.1210   17.3760 C   0  0  0  0  0  0  0  0  0  0  0  0
   47.4420   59.3210   18.6200 C   0  0  0  0  0  0  0  0  0  0  0  0
   46.6700   60.7590   19.2020 S   0  0  0  0  0  0  0  0  0  0  0  0
   45.5750   61.0620   17.8280 C   0  0  0  0  0  0  0  0  0  0  0  0
   44.6070   62.1470   17.6510 C   0  0  0  0  0  0  0  0  0  0  0  0
   44.9820   63.2930   17.0480 N   0  0  0  0  0  0  0  0  0  0  0  0
   46.0160   63.4130   16.6900 H   0  0  0  0  0  0  0  0  0  0  0  0
   44.2570   64.1080   16.9160 H   0  0  0  0  0  0  0  0  0  0  0  0
   43.4640   62.0140   18.0480 O   0  0  0  0  0  0  0  0  0  0  0  0
   47.2080   57.9870   16.5230 C   0  0  0  0  0  0  0  0  0  0  0  0
   47.6390   56.9670   17.0230 O   0  0  0  0  0  0  0  0  0  0  0  0
   47.0720   58.0780   15.1840 O   0  0  0  0  0  0  0  0  0  0  0  0
   46.9670   56.8320   14.4460 C   0  0  0  0  0  0  0  0  0  0  0  0
   47.5490   57.0200   13.0450 C   0  0  0  0  0  0  0  0  0  0  0  0
   45.4960   56.4260   14.3380 C   0  0  0  0  0  0  0  0  0  0  0  0
   49.1740   56.9540   20.9550 C   0  0  0  0  0  0  0  0  0  0  0  0
   49.8150   56.0840   19.9600 N   0  0  0  0  0  0  0  0  0  0  0  0
   49.8630   56.6350   19.0080 H   0  0  0  0  0  0  0  0  0  0  0  0
   49.0200   54.8700   19.7330 C   0  0  0  0  0  0  0  0  0  0  0  0
   49.6220   54.0810   18.5650 C   0  0  0  0  0  0  0  0  0  0  0  0
   51.0470   53.8490   18.8430 N   0  0  0  0  0  0  0  0  0  0  0  0
   51.5760   52.6110   18.7610 C   0  0  0  0  0  0  0  0  0  0  0  0
   52.7700   52.4480   18.9270 O   0  0  0  0  0  0  0  0  0  0  0  0
   51.8810   55.0030   19.2140 C   0  0  0  0  0  0  0  0  0  0  0  0
   51.1900   55.7550   20.3560 C   0  0  0  0  0  0  0  0  0  0  0  0
   50.7110   51.4630   18.4730 C   0  0  0  0  0  0  0  0  0  0  0  0
   50.2490   50.5570   19.3850 C   0  0  0  0  0  0  0  0  0  0  0  0
   49.4630   49.6350   18.6760 C   0  0  0  0  0  0  0  0  0  0  0  0
   49.4790   50.0140   17.3790 C   0  0  0  0  0  0  0  0  0  0  0  0
   50.2280   51.1190   17.2620 O   0  0  0  0  0  0  0  0  0  0  0  0
  1  3  1  0  0  0  0
  2  1  1  0  0  0  0
  3  4  2  0  0  0  0
  3 22  1  0  0  0  0
  5  6  1  0  0  0  0
  6  7  1  0  0  0  0
  6 10  2  0  0  0  0
  7  8  2  0  0  0  0
  8  9  1  0  0  0  0
  8  1  1  0  0  0  0
 10  9  1  0  0  0  0
 11 10  1  0  0  0  0
 11 15  2  0  0  0  0
 12 11  1  0  0  0  0
 13 12  1  0  0  0  0
 14 12  1  0  0  0  0
 16 17  2  0  0  0  0
 16  7  1  0  0  0  0
 18 16  1  0  0  0  0
 19 18  1  0  0  0  0
 20 19  1  0  0  0  0
 21 19  1  0  0  0  0
 23 31  1  0  0  0  0
 23 22  1  0  0  0  0
 24 23  1  0  0  0  0
 25 23  1  0  0  0  0
 26 27  1  0  0  0  0
 26 25  1  0  0  0  0
 27 30  1  0  0  0  0
 28 27  1  0  0  0  0
 28 29  2  0  0  0  0
 30 31  1  0  0  0  0
 32 28  1  0  0  0  0
 32 33  2  0  0  0  0
 34 33  1  0  0  0  0
 35 34  2  0  0  0  0
 36 35  1  0  0  0  0
 36 32  1  0  0  0  0
M  END
>  <MODEL>
8

>  <REMARK>
  Name = ZINC20294931
                            x       y       z     vdW  Elec       q    Type
                         _______ _______ _______ _____ _____    ______ ____

>  <TORSDO>
F 8

>  <minimizedAffinity>
-7.0002258639329922

$$$$
ZINC20294931
 OpenBabel10211213103D

 36 38  0  0  0  0  0  0  0  0999 V2000
   49.3950   55.5750   17.8430 N   0  0  0  0  0  0  0  0  0  0  0  0
   49.6320   56.1020   16.9070 H   0  0  0  0  0  0  0  0  0  0  0  0
   48.5950   54.4920   17.8220 C   0  0  0  0  0  0  0  0  0  0  0  0
   48.3320   53.9120   18.8560 O   0  0  0  0  0  0  0  0  0  0  0  0
   49.5890   58.2490   22.0870 C   0  0  0  0  0  0  0  0  0  0  0  0
   50.0980   57.2530   21.0770 C   0  0  0  0  0  0  0  0  0  0  0  0
   49.3760   56.9640   19.9280 C   0  0  0  0  0  0  0  0  0  0  0  0
   49.9160   56.0270   19.0410 C   0  0  0  0  0  0  0  0  0  0  0  0
   51.4020   55.5760   19.8080 S   0  0  0  0  0  0  0  0  0  0  0  0
   51.2860   56.6020   21.2620 C   0  0  0  0  0  0  0  0  0  0  0  0
   52.2310   56.7230   22.3750 C   0  0  0  0  0  0  0  0  0  0  0  0
   53.0850   57.7650   22.4240 N   0  0  0  0  0  0  0  0  0  0  0  0
   53.0720   58.5240   21.6270 H   0  0  0  0  0  0  0  0  0  0  0  0
   53.7950   57.8560   23.2580 H   0  0  0  0  0  0  0  0  0  0  0  0
   52.2450   55.8830   23.2560 O   0  0  0  0  0  0  0  0  0  0  0  0
   48.0920   57.6170   19.6540 C   0  0  0  0  0  0  0  0  0  0  0  0
   47.0990   57.2890   20.2730 O   0  0  0  0  0  0  0  0  0  0  0  0
   48.0130   58.5830   18.7160 O   0  0  0  0  0  0  0  0  0  0  0  0
   46.8270   59.4200   18.7290 C   0  0  0  0  0  0  0  0  0  0  0  0
   46.3640   59.6700   17.2930 C   0  0  0  0  0  0  0  0  0  0  0  0
   47.1550   60.7560   19.3990 C   0  0  0  0  0  0  0  0  0  0  0  0
   48.0260   53.9990   16.5170 C   0  0  0  0  0  0  0  0  0  0  0  0
   48.2750   52.5570   16.3860 N   0  0  0  0  0  0  0  0  0  0  0  0
   48.6040   52.3610   15.3550 H   0  0  0  0  0  0  0  0  0  0  0  0
   47.0440   51.7880   16.6150 C   0  0  0  0  0  0  0  0  0  0  0  0
   47.3020   50.3120   16.2940 C   0  0  0  0  0  0  0  0  0  0  0  0
   48.4700   49.8620   17.0660 N   0  0  0  0  0  0  0  0  0  0  0  0
   48.4120   48.7460   17.8200 C   0  0  0  0  0  0  0  0  0  0  0  0
   49.4080   48.3510   18.3970 O   0  0  0  0  0  0  0  0  0  0  0  0
   49.7020   50.6630   16.9950 C   0  0  0  0  0  0  0  0  0  0  0  0
   49.3500   52.1250   17.2880 C   0  0  0  0  0  0  0  0  0  0  0  0
   47.1510   48.0100   17.9440 C   0  0  0  0  0  0  0  0  0  0  0  0
   46.2730   48.0910   18.9880 C   0  0  0  0  0  0  0  0  0  0  0  0
   45.2110   47.2220   18.6910 C   0  0  0  0  0  0  0  0  0  0  0  0
   45.4840   46.6560   17.4950 C   0  0  0  0  0  0  0  0  0  0  0  0
   46.6500   47.1370   17.0450 O   0  0  0  0  0  0  0  0  0  0  0  0
  1  8  1  0  0  0  0
  2  1  1  0  0  0  0
  3  1  1  0  0  0  0
  3  4  2  0  0  0  0
  6 10  2  0  0  0  0
  6  5  1  0  0  0  0
  7  6  1  0  0  0  0
  8  9  1  0  0  0  0
  8  7  2  0  0  0  0
  9 10  1  0  0  0  0
 10 11  1  0  0  0  0
 11 12  1  0  0  0  0
 11 15  2  0  0  0  0
 12 14  1  0  0  0  0
 13 12  1  0  0  0  0
 16  7  1  0  0  0  0
 16 17  2  0  0  0  0
 18 19  1  0  0  0  0
 18 16  1  0  0  0  0
 19 21  1  0  0  0  0
 20 19  1  0  0  0  0
 22  3  1  0  0  0  0
 23 22  1  0  0  0  0
 23 25  1  0  0  0  0
 23 31  1  0  0  0  0
 24 23  1  0  0  0  0
 26 25  1  0  0  0  0
 26 27  1  0  0  0  0
 27 28  1  0  0  0  0
 28 32  1  0  0  0  0
 28 29  2  0  0  0  0
 30 27  1  0  0  0  0
 30 31  1  0  0  0  0
 32 33  2  0  0  0  0
 34 33  1  0  0  0  0
 35 34  2  0  0  0  0
 36 35  1  0  0  0  0
 36 32  1  0  0  0  0
M  END
>  <MODEL>
9

>  <REMARK>
  Name = ZINC20294931
                            x       y       z     vdW  Elec       q    Type
                         _______ _______ _______ _____ _____    ______ ____

>  <TORSDO>
F 8

>  <minimizedAffinity>
-6.9179104219150371

$$$$
ZINC39995868
 OpenBabel10211213123D

 36 40  0  0  1  0  0  0  0  0999 V2000
   50.0200   51.8060   18.3030 C   0  0  1  0  0  0  0  0  0  0  0  0
   49.4790   52.8600   17.4280 N   0  0  0  0  0  0  0  0  0  0  0  0
   49.6620   53.8100   17.4840 H   0  0  0  0  0  0  0  0  0  0  0  0
   48.6450   52.2200   16.5030 N   0  0  0  0  0  0  0  0  0  0  0  0
   48.6160   50.9290   16.7050 C   0  0  0  0  0  0  0  0  0  0  0  0
   49.4230   50.5620   17.7880 N   0  0  0  0  0  0  0  0  0  0  0  0
   47.8670   50.0260   15.9350 C   0  0  0  0  0  0  0  0  0  0  0  0
   46.7050   49.3540   16.3140 C   0  0  0  0  0  0  0  0  0  0  0  0
   45.9480   49.3560   17.5060 C   0  0  0  0  0  0  0  0  0  0  0  0
   44.8340   48.5860   17.5970 C   0  0  0  0  0  0  0  0  0  0  0  0
   44.4090   47.7850   16.5350 C   0  0  0  0  0  0  0  0  0  0  0  0
   45.0870   47.7340   15.3620 C   0  0  0  0  0  0  0  0  0  0  0  0
   46.2620   48.5100   15.1920 C   0  0  0  0  0  0  0  0  0  0  0  0
   47.0840   48.6350   14.1680 N   0  0  0  0  0  0  0  0  0  0  0  0
   46.9960   48.1770   13.3180 H   0  0  0  0  0  0  0  0  0  0  0  0
   48.1490   49.5820   14.5160 C   0  0  0  0  0  0  0  0  0  0  0  0
   49.6350   49.2090   18.3080 C   0  0  0  0  0  0  0  0  0  0  0  0
   48.6590   48.7000   19.3710 C   0  0  0  0  0  0  0  0  0  0  0  0
   50.0910   49.0750   19.7620 C   0  0  0  0  0  0  0  0  0  0  0  0
   51.8280   51.7420   18.1750 S   0  0  0  0  0  0  0  0  0  0  0  0
   52.1720   51.8860   20.8840 C   0  0  0  0  0  0  0  0  0  0  0  0
   52.4030   52.6950   19.6070 C   0  0  2  0  0  0  0  0  0  0  0  0
   51.6390   53.9910   19.6880 C   0  0  0  0  0  0  0  0  0  0  0  0
   50.8040   54.2180   20.7220 N   0  0  0  0  0  0  0  0  0  0  0  0
   50.6950   53.5460   21.4130 H   0  0  0  0  0  0  0  0  0  0  0  0
   51.7750   54.8310   18.8240 O   0  0  0  0  0  0  0  0  0  0  0  0
   50.1000   55.4100   20.7970 C   0  0  0  0  0  0  0  0  0  0  0  0
   50.4570   56.5710   21.4670 C   0  0  0  0  0  0  0  0  0  0  0  0
   49.5320   57.6770   21.3800 C   0  0  0  0  0  0  0  0  0  0  0  0
   48.4210   57.4580   20.6540 C   0  0  0  0  0  0  0  0  0  0  0  0
   48.6240   55.7820   20.0900 S   0  0  0  0  0  0  0  0  0  0  0  0
   51.7070   56.6690   22.2250 C   0  0  0  0  0  0  0  0  0  0  0  0
   52.4050   57.8230   22.2290 N   0  0  0  0  0  0  0  0  0  0  0  0
   53.2330   57.8870   22.7300 H   0  0  0  0  0  0  0  0  0  0  0  0
   52.0790   58.5880   21.7290 H   0  0  0  0  0  0  0  0  0  0  0  0
   52.1180   55.7090   22.8520 O   0  0  0  0  0  0  0  0  0  0  0  0
  1 20  1  6  0  0  0
  2  3  1  0  0  0  0
  2  1  1  0  0  0  0
  4  5  2  0  0  0  0
  4  2  1  0  0  0  0
  5  6  1  0  0  0  0
  6  1  1  0  0  0  0
  6 17  1  0  0  0  0
  7  8  1  0  0  0  0
  7  5  1  0  0  0  0
  8  9  2  0  0  0  0
  9 10  1  0  0  0  0
 11 10  2  0  0  0  0
 12 11  1  0  0  0  0
 13 12  2  0  0  0  0
 13  8  1  0  0  0  0
 14 16  1  0  0  0  0
 14 13  1  0  0  0  0
 15 14  1  0  0  0  0
 16  7  2  0  0  0  0
 17 18  1  0  0  0  0
 17 19  1  0  0  0  0
 18 19  1  0  0  0  0
 22 20  1  1  0  0  0
 22 23  1  0  0  0  0
 22 21  1  0  0  0  0
 23 24  1  0  0  0  0
 24 27  1  0  0  0  0
 24 25  1  0  0  0  0
 26 23  2  0  0  0  0
 27 28  2  0  0  0  0
 28 32  1  0  0  0  0
 29 28  1  0  0  0  0
 30 29  2  0  0  0  0
 31 30  1  0  0  0  0
 31 27  1  0  0  0  0
 32 33  1  0  0  0  0
 32 36  2  0  0  0  0
 33 34  1  0  0  0  0
 35 33  1  0  0  0  0
M  END
>  <MODEL>
1

>  <REMARK>
  Name = ZINC39995868
                            x       y       z     vdW  Elec       q    Type
                         _______ _______ _______ _____ _____    ______ ____

>  <TORSDO>
F 7

>  <minimizedAffinity>
-10.13782725886024

$$$$
ZINC39995868
 OpenBabel10211213123D

 36 40  0  0  1  0  0  0  0  0999 V2000
   50.1790   50.5490   18.2130 C   0  0  1  0  0  0  0  0  0  0  0  0
   50.5760   49.2170   18.6990 N   0  0  0  0  0  0  0  0  0  0  0  0
   51.4570   48.9510   19.0030 H   0  0  0  0  0  0  0  0  0  0  0  0
   49.4340   48.4110   18.6300 N   0  0  0  0  0  0  0  0  0  0  0  0
   48.4090   49.0800   18.1720 C   0  0  0  0  0  0  0  0  0  0  0  0
   48.7520   50.4050   17.8810 N   0  0  0  0  0  0  0  0  0  0  0  0
   47.1270   48.5370   17.9920 C   0  0  0  0  0  0  0  0  0  0  0  0
   46.4790   48.2850   16.7830 C   0  0  0  0  0  0  0  0  0  0  0  0
   46.8630   48.4760   15.4380 C   0  0  0  0  0  0  0  0  0  0  0  0
   46.0090   48.1310   14.4400 C   0  0  0  0  0  0  0  0  0  0  0  0
   44.7510   47.5890   14.7070 C   0  0  0  0  0  0  0  0  0  0  0  0
   44.3180   47.3780   15.9740 C   0  0  0  0  0  0  0  0  0  0  0  0
   45.1530   47.7140   17.0700 C   0  0  0  0  0  0  0  0  0  0  0  0
   44.9690   47.6080   18.3720 N   0  0  0  0  0  0  0  0  0  0  0  0
   44.1710   47.2590   18.7990 H   0  0  0  0  0  0  0  0  0  0  0  0
   46.1620   48.0960   19.0710 C   0  0  0  0  0  0  0  0  0  0  0  0
   47.8680   51.4460   17.3500 C   0  0  0  0  0  0  0  0  0  0  0  0
   48.0130   51.8100   15.8710 C   0  0  0  0  0  0  0  0  0  0  0  0
   48.5050   52.7780   16.9500 C   0  0  0  0  0  0  0  0  0  0  0  0
   50.4040   51.7920   19.5150 S   0  0  0  0  0  0  0  0  0  0  0  0
   52.8840   52.8580   19.0780 C   0  0  0  0  0  0  0  0  0  0  0  0
   51.4120   53.0770   18.7260 C   0  0  2  0  0  0  0  0  0  0  0  0
   50.9730   54.4320   19.2190 C   0  0  0  0  0  0  0  0  0  0  0  0
   50.0720   54.5260   20.2180 N   0  0  0  0  0  0  0  0  0  0  0  0
   49.7050   53.7220   20.6180 H   0  0  0  0  0  0  0  0  0  0  0  0
   51.4310   55.4370   18.7190 O   0  0  0  0  0  0  0  0  0  0  0  0
   49.6680   55.7730   20.6720 C   0  0  0  0  0  0  0  0  0  0  0  0
   50.3060   56.5940   21.5900 C   0  0  0  0  0  0  0  0  0  0  0  0
   49.6620   57.8530   21.8860 C   0  0  0  0  0  0  0  0  0  0  0  0
   48.5090   58.0910   21.2340 C   0  0  0  0  0  0  0  0  0  0  0  0
   48.3000   56.6370   20.2300 S   0  0  0  0  0  0  0  0  0  0  0  0
   51.5670   56.2040   22.2270 C   0  0  0  0  0  0  0  0  0  0  0  0
   52.5180   57.1300   22.4620 N   0  0  0  0  0  0  0  0  0  0  0  0
   53.3530   56.8720   22.8830 H   0  0  0  0  0  0  0  0  0  0  0  0
   52.3670   58.0550   22.2100 H   0  0  0  0  0  0  0  0  0  0  0  0
   51.7570   55.0440   22.5430 O   0  0  0  0  0  0  0  0  0  0  0  0
  1  2  1  0  0  0  0
  1 20  1  1  0  0  0
  2  3  1  0  0  0  0
  4  2  1  0  0  0  0
  5  4  2  0  0  0  0
  6  5  1  0  0  0  0
  6  1  1  0  0  0  0
  7  5  1  0  0  0  0
  7 16  2  0  0  0  0
  8 13  1  0  0  0  0
  8  7  1  0  0  0  0
  9  8  2  0  0  0  0
 10 11  2  0  0  0  0
 10  9  1  0  0  0  0
 11 12  1  0  0  0  0
 12 13  2  0  0  0  0
 13 14  1  0  0  0  0
 14 15  1  0  0  0  0
 14 16  1  0  0  0  0
 17  6  1  0  0  0  0
 18 19  1  0  0  0  0
 18 17  1  0  0  0  0
 19 17  1  0  0  0  0
 22 21  1  1  0  0  0
 22 23  1  0  0  0  0
 22 20  1  0  0  0  0
 23 24  1  0  0  0  0
 24 25  1  0  0  0  0
 24 27  1  0  0  0  0
 26 23  2  0  0  0  0
 27 28  2  0  0  0  0
 28 29  1  0  0  0  0
 28 32  1  0  0  0  0
 30 29  2  0  0  0  0
 31 27  1  0  0  0  0
 31 30  1  0  0  0  0
 32 33  1  0  0  0  0
 32 36  2  0  0  0  0
 33 34  1  0  0  0  0
 35 33  1  0  0  0  0
M  END
>  <MODEL>
2

>  <REMARK>
  Name = ZINC39995868
                            x       y       z     vdW  Elec       q    Type
                         _______ _______ _______ _____ _____    ______ ____

>  <TORSDO>
F 7

>  <minimizedAffinity>
-9.7021328768008299

$$$$
ZINC39995868
 OpenBabel10211213123D

 36 40  0  0  1  0  0  0  0  0999 V2000
   49.8200   52.2000   18.8180 C   0  0  1  0  0  0  0  0  0  0  0  0
   49.0650   53.2460   18.1090 N   0  0  0  0  0  0  0  0  0  0  0  0
   49.0620   54.1950   18.3080 H   0  0  0  0  0  0  0  0  0  0  0  0
   48.3500   52.6010   17.0930 N   0  0  0  0  0  0  0  0  0  0  0  0
   48.5750   51.3140   17.0980 C   0  0  0  0  0  0  0  0  0  0  0  0
   49.4640   50.9540   18.1180 N   0  0  0  0  0  0  0  0  0  0  0  0
   47.9980   50.4070   16.1960 C   0  0  0  0  0  0  0  0  0  0  0  0
   46.8530   49.6350   16.3920 C   0  0  0  0  0  0  0  0  0  0  0  0
   45.9580   49.5160   17.4770 C   0  0  0  0  0  0  0  0  0  0  0  0
   44.9020   48.6660   17.3880 C   0  0  0  0  0  0  0  0  0  0  0  0
   44.6740   47.9000   16.2440 C   0  0  0  0  0  0  0  0  0  0  0  0
   45.4910   47.9640   15.1650 C   0  0  0  0  0  0  0  0  0  0  0  0
   46.6160   48.8290   15.1830 C   0  0  0  0  0  0  0  0  0  0  0  0
   47.5460   49.0700   14.2780 N   0  0  0  0  0  0  0  0  0  0  0  0
   47.5980   48.6570   13.4030 H   0  0  0  0  0  0  0  0  0  0  0  0
   48.4850   50.0670   14.8040 C   0  0  0  0  0  0  0  0  0  0  0  0
   49.9460   49.6070   18.4290 C   0  0  0  0  0  0  0  0  0  0  0  0
   48.9710   48.6490   19.1180 C   0  0  0  0  0  0  0  0  0  0  0  0
   50.1390   49.2490   19.9040 C   0  0  0  0  0  0  0  0  0  0  0  0
   51.6030   52.5090   18.6930 S   0  0  0  0  0  0  0  0  0  0  0  0
   51.1960   51.8050   21.3040 C   0  0  0  0  0  0  0  0  0  0  0  0
   52.1550   52.6030   20.4180 C   0  0  2  0  0  0  0  0  0  0  0  0
   52.1710   54.0420   20.8630 C   0  0  0  0  0  0  0  0  0  0  0  0
   52.3950   55.0230   19.9650 N   0  0  0  0  0  0  0  0  0  0  0  0
   52.5470   54.8020   19.0330 H   0  0  0  0  0  0  0  0  0  0  0  0
   51.9810   54.3200   22.0280 O   0  0  0  0  0  0  0  0  0  0  0  0
   52.4100   56.3480   20.3740 C   0  0  0  0  0  0  0  0  0  0  0  0
   51.3270   57.1920   20.5710 C   0  0  0  0  0  0  0  0  0  0  0  0
   51.6280   58.5380   21.0040 C   0  0  0  0  0  0  0  0  0  0  0  0
   52.9320   58.8240   21.1690 C   0  0  0  0  0  0  0  0  0  0  0  0
   53.7430   57.2950   20.7520 S   0  0  0  0  0  0  0  0  0  0  0  0
   49.9500   56.7430   20.3510 C   0  0  0  0  0  0  0  0  0  0  0  0
   48.9930   57.0310   21.2560 N   0  0  0  0  0  0  0  0  0  0  0  0
   48.0820   56.7340   21.1110 H   0  0  0  0  0  0  0  0  0  0  0  0
   49.2170   57.5370   22.0530 H   0  0  0  0  0  0  0  0  0  0  0  0
   49.6680   56.1070   19.3510 O   0  0  0  0  0  0  0  0  0  0  0  0
  1 20  1  6  0  0  0
  2  3  1  0  0  0  0
  2  1  1  0  0  0  0
  4  5  2  0  0  0  0
  4  2  1  0  0  0  0
  5  6  1  0  0  0  0
  6 17  1  0  0  0  0
  6  1  1  0  0  0  0
  7  8  1  0  0  0  0
  7  5  1  0  0  0  0
  8  9  2  0  0  0  0
 10  9  1  0  0  0  0
 11 10  2  0  0  0  0
 12 13  2  0  0  0  0
 12 11  1  0  0  0  0
 13  8  1  0  0  0  0
 14 16  1  0  0  0  0
 14 13  1  0  0  0  0
 15 14  1  0  0  0  0
 16  7  2  0  0  0  0
 17 18  1  0  0  0  0
 17 19  1  0  0  0  0
 18 19  1  0  0  0  0
 22 20  1  6  0  0  0
 22 23  1  0  0  0  0
 22 21  1  0  0  0  0
 23 26  2  0  0  0  0
 24 27  1  0  0  0  0
 24 23  1  0  0  0  0
 25 24  1  0  0  0  0
 27 28  2  0  0  0  0
 27 31  1  0  0  0  0
 28 29  1  0  0  0  0
 29 30  2  0  0  0  0
 31 30  1  0  0  0  0
 32 28  1  0  0  0  0
 32 33  1  0  0  0  0
 33 35  1  0  0  0  0
 34 33  1  0  0  0  0
 36 32  2  0  0  0  0
M  END
>  <MODEL>
3

>  <REMARK>
  Name = ZINC39995868
                            x       y       z     vdW  Elec       q    Type
                         _______ _______ _______ _____ _____    ______ ____

>  <TORSDO>
F 7

>  <minimizedAffinity>
-9.2346299296410468

$$$$
ZINC39995868
 OpenBabel10211213123D

 36 40  0  0  1  0  0  0  0  0999 V2000
   50.3590   51.4410   17.0260 C   0  0  1  0  0  0  0  0  0  0  0  0
   50.9940   50.2110   16.5240 N   0  0  0  0  0  0  0  0  0  0  0  0
   51.9460   50.0370   16.4560 H   0  0  0  0  0  0  0  0  0  0  0  0
   49.9560   49.3460   16.1610 N   0  0  0  0  0  0  0  0  0  0  0  0
   48.7870   49.8900   16.3790 C   0  0  0  0  0  0  0  0  0  0  0  0
   48.9150   51.1790   16.9090 N   0  0  0  0  0  0  0  0  0  0  0  0
   47.5610   49.2620   16.1140 C   0  0  0  0  0  0  0  0  0  0  0  0
   46.7060   48.6560   17.0340 C   0  0  0  0  0  0  0  0  0  0  0  0
   46.7790   48.4850   18.4340 C   0  0  0  0  0  0  0  0  0  0  0  0
   45.7770   47.8400   19.0860 C   0  0  0  0  0  0  0  0  0  0  0  0
   44.6660   47.3380   18.4060 C   0  0  0  0  0  0  0  0  0  0  0  0
   44.5300   47.4660   17.0640 C   0  0  0  0  0  0  0  0  0  0  0  0
   45.5360   48.1270   16.3130 C   0  0  0  0  0  0  0  0  0  0  0  0
   45.6390   48.3790   15.0220 N   0  0  0  0  0  0  0  0  0  0  0  0
   44.9890   48.1270   14.3480 H   0  0  0  0  0  0  0  0  0  0  0  0
   46.8870   49.1060   14.7680 C   0  0  0  0  0  0  0  0  0  0  0  0
   47.8280   52.0910   17.2760 C   0  0  0  0  0  0  0  0  0  0  0  0
   47.3430   53.0770   16.2120 C   0  0  0  0  0  0  0  0  0  0  0  0
   48.1650   53.5770   17.4020 C   0  0  0  0  0  0  0  0  0  0  0  0
   50.8130   51.7270   18.7580 S   0  0  0  0  0  0  0  0  0  0  0  0
   52.9810   53.3000   19.3130 C   0  0  0  0  0  0  0  0  0  0  0  0
   51.5610   53.3800   18.7490 C   0  0  2  0  0  0  0  0  0  0  0  0
   50.7350   54.3100   19.5990 C   0  0  0  0  0  0  0  0  0  0  0  0
   50.8510   55.6440   19.4460 N   0  0  0  0  0  0  0  0  0  0  0  0
   51.4670   56.0060   18.7900 H   0  0  0  0  0  0  0  0  0  0  0  0
   49.9650   53.8590   20.4210 O   0  0  0  0  0  0  0  0  0  0  0  0
   50.0910   56.5010   20.2290 C   0  0  0  0  0  0  0  0  0  0  0  0
   50.4910   57.2120   21.3510 C   0  0  0  0  0  0  0  0  0  0  0  0
   49.4880   58.0380   21.9830 C   0  0  0  0  0  0  0  0  0  0  0  0
   48.2710   58.0270   21.4090 C   0  0  0  0  0  0  0  0  0  0  0  0
   48.4780   56.9200   20.0310 S   0  0  0  0  0  0  0  0  0  0  0  0
   51.8590   57.1280   21.8680 C   0  0  0  0  0  0  0  0  0  0  0  0
   52.5440   58.2540   22.1490 N   0  0  0  0  0  0  0  0  0  0  0  0
   53.4500   58.1990   22.4920 H   0  0  0  0  0  0  0  0  0  0  0  0
   52.1310   59.1210   22.0090 H   0  0  0  0  0  0  0  0  0  0  0  0
   52.3780   56.0410   22.0450 O   0  0  0  0  0  0  0  0  0  0  0  0
  1 20  1  1  0  0  0
  2  1  1  0  0  0  0
  3  2  1  0  0  0  0
  4  5  2  0  0  0  0
  4  2  1  0  0  0  0
  5  6  1  0  0  0  0
  6  1  1  0  0  0  0
  6 17  1  0  0  0  0
  7  5  1  0  0  0  0
  7  8  1  0  0  0  0
  8  9  1  0  0  0  0
  9 10  2  0  0  0  0
 11 10  1  0  0  0  0
 12 11  2  0  0  0  0
 13  8  2  0  0  0  0
 13 12  1  0  0  0  0
 14 13  1  0  0  0  0
 15 14  1  0  0  0  0
 16 14  1  0  0  0  0
 16  7  2  0  0  0  0
 17 19  1  0  0  0  0
 18 17  1  0  0  0  0
 18 19  1  0  0  0  0
 22 20  1  1  0  0  0
 22 21  1  0  0  0  0
 22 23  1  0  0  0  0
 23 26  2  0  0  0  0
 24 23  1  0  0  0  0
 24 27  1  0  0  0  0
 25 24  1  0  0  0  0
 27 28  2  0  0  0  0
 28 32  1  0  0  0  0
 28 29  1  0  0  0  0
 30 29  2  0  0  0  0
 31 27  1  0  0  0  0
 31 30  1  0  0  0  0
 32 36  2  0  0  0  0
 32 33  1  0  0  0  0
 33 34  1  0  0  0  0
 35 33  1  0  0  0  0
M  END
>  <MODEL>
4

>  <REMARK>
  Name = ZINC39995868
                            x       y       z     vdW  Elec       q    Type
                         _______ _______ _______ _____ _____    ______ ____

>  <TORSDO>
F 7

>  <minimizedAffinity>
-9.1342802862205765

$$$$
ZINC39995868
 OpenBabel10211213123D

 36 40  0  0  1  0  0  0  0  0999 V2000
   49.1270   52.5010   18.7060 C   0  0  1  0  0  0  0  0  0  0  0  0
   48.0380   53.2920   18.1070 N   0  0  0  0  0  0  0  0  0  0  0  0
   47.7970   54.2050   18.3280 H   0  0  0  0  0  0  0  0  0  0  0  0
   47.4200   52.4660   17.1620 N   0  0  0  0  0  0  0  0  0  0  0  0
   47.9910   51.2910   17.1120 C   0  0  0  0  0  0  0  0  0  0  0  0
   49.0520   51.2000   18.0200 N   0  0  0  0  0  0  0  0  0  0  0  0
   47.5890   50.2530   16.2580 C   0  0  0  0  0  0  0  0  0  0  0  0
   46.5350   49.3600   16.4530 C   0  0  0  0  0  0  0  0  0  0  0  0
   45.5900   49.2120   17.4920 C   0  0  0  0  0  0  0  0  0  0  0  0
   44.6540   48.2320   17.4150 C   0  0  0  0  0  0  0  0  0  0  0  0
   44.5960   47.3580   16.3280 C   0  0  0  0  0  0  0  0  0  0  0  0
   45.4710   47.4430   15.2960 C   0  0  0  0  0  0  0  0  0  0  0  0
   46.4790   48.4400   15.3050 C   0  0  0  0  0  0  0  0  0  0  0  0
   47.4310   48.7270   14.4380 N   0  0  0  0  0  0  0  0  0  0  0  0
   47.5910   48.2580   13.6050 H   0  0  0  0  0  0  0  0  0  0  0  0
   48.2050   49.8710   14.9300 C   0  0  0  0  0  0  0  0  0  0  0  0
   49.9180   50.0410   18.2460 C   0  0  0  0  0  0  0  0  0  0  0  0
   49.3380   48.8680   19.0400 C   0  0  0  0  0  0  0  0  0  0  0  0
   50.3890   49.7790   19.6780 C   0  0  0  0  0  0  0  0  0  0  0  0
   50.7300   53.2910   18.3930 S   0  0  0  0  0  0  0  0  0  0  0  0
   50.4440   53.5330   21.1020 C   0  0  0  0  0  0  0  0  0  0  0  0
   51.0440   54.2570   19.8950 C   0  0  2  0  0  0  0  0  0  0  0  0
   50.4100   55.6170   19.7590 C   0  0  0  0  0  0  0  0  0  0  0  0
   49.0670   55.7350   19.7270 N   0  0  0  0  0  0  0  0  0  0  0  0
   48.5090   54.9440   19.7910 H   0  0  0  0  0  0  0  0  0  0  0  0
   51.1070   56.6060   19.6790 O   0  0  0  0  0  0  0  0  0  0  0  0
   48.4830   56.9860   19.6020 C   0  0  0  0  0  0  0  0  0  0  0  0
   48.0260   57.6020   18.4460 C   0  0  0  0  0  0  0  0  0  0  0  0
   47.4550   58.9210   18.5990 C   0  0  0  0  0  0  0  0  0  0  0  0
   47.4290   59.4070   19.8530 C   0  0  0  0  0  0  0  0  0  0  0  0
   48.1600   58.1000   20.8140 S   0  0  0  0  0  0  0  0  0  0  0  0
   48.1190   56.9500   17.1370 C   0  0  0  0  0  0  0  0  0  0  0  0
   47.7590   57.6180   16.0230 N   0  0  0  0  0  0  0  0  0  0  0  0
   47.8210   57.1860   15.1570 H   0  0  0  0  0  0  0  0  0  0  0  0
   47.4400   58.5320   16.0880 H   0  0  0  0  0  0  0  0  0  0  0  0
   48.5200   55.8030   17.0540 O   0  0  0  0  0  0  0  0  0  0  0  0
  1 20  1  6  0  0  0
  2  3  1  0  0  0  0
  2  1  1  0  0  0  0
  4  2  1  0  0  0  0
  5  4  2  0  0  0  0
  5  6  1  0  0  0  0
  6 17  1  0  0  0  0
  6  1  1  0  0  0  0
  7  8  1  0  0  0  0
  7  5  1  0  0  0  0
  8  9  2  0  0  0  0
 10  9  1  0  0  0  0
 11 10  2  0  0  0  0
 12 13  2  0  0  0  0
 12 11  1  0  0  0  0
 13  8  1  0  0  0  0
 14 16  1  0  0  0  0
 14 13  1  0  0  0  0
 15 14  1  0  0  0  0
 16  7  2  0  0  0  0
 17 18  1  0  0  0  0
 17 19  1  0  0  0  0
 18 19  1  0  0  0  0
 22 20  1  6  0  0  0
 22 21  1  0  0  0  0
 23 22  1  0  0  0  0
 24 23  1  0  0  0  0
 24 25  1  0  0  0  0
 26 23  2  0  0  0  0
 27 24  1  0  0  0  0
 27 31  1  0  0  0  0
 28 29  1  0  0  0  0
 28 27  2  0  0  0  0
 29 30  2  0  0  0  0
 30 31  1  0  0  0  0
 32 28  1  0  0  0  0
 33 35  1  0  0  0  0
 33 32  1  0  0  0  0
 34 33  1  0  0  0  0
 36 32  2  0  0  0  0
M  END
>  <MODEL>
5

>  <REMARK>
  Name = ZINC39995868
                            x       y       z     vdW  Elec       q    Type
                         _______ _______ _______ _____ _____    ______ ____

>  <TORSDO>
F 7

>  <minimizedAffinity>
-8.6088793202600886

$$$$
ZINC39995868
 OpenBabel10211213123D

 36 40  0  0  1  0  0  0  0  0999 V2000
   47.0080   48.6810   15.9240 C   0  0  1  0  0  0  0  0  0  0  0  0
   46.9570   48.6580   14.4530 N   0  0  0  0  0  0  0  0  0  0  0  0
   47.3680   49.2960   13.8490 H   0  0  0  0  0  0  0  0  0  0  0  0
   46.1970   47.5390   14.0980 N   0  0  0  0  0  0  0  0  0  0  0  0
   45.7880   46.8880   15.1560 C   0  0  0  0  0  0  0  0  0  0  0  0
   46.2270   47.5020   16.3350 N   0  0  0  0  0  0  0  0  0  0  0  0
   45.0060   45.7240   15.1150 C   0  0  0  0  0  0  0  0  0  0  0  0
   43.6490   45.6280   14.8050 C   0  0  0  0  0  0  0  0  0  0  0  0
   42.6810   46.5950   14.4540 C   0  0  0  0  0  0  0  0  0  0  0  0
   41.4060   46.2070   14.1990 C   0  0  0  0  0  0  0  0  0  0  0  0
   41.0190   44.8670   14.2730 C   0  0  0  0  0  0  0  0  0  0  0  0
   41.8950   43.8870   14.6030 C   0  0  0  0  0  0  0  0  0  0  0  0
   43.2460   44.2150   14.8840 C   0  0  0  0  0  0  0  0  0  0  0  0
   44.2750   43.4610   15.2220 N   0  0  0  0  0  0  0  0  0  0  0  0
   44.2510   42.4980   15.3350 H   0  0  0  0  0  0  0  0  0  0  0  0
   45.4610   44.3070   15.3910 C   0  0  0  0  0  0  0  0  0  0  0  0
   45.9630   47.0620   17.7070 C   0  0  0  0  0  0  0  0  0  0  0  0
   44.7390   47.6460   18.4140 C   0  0  0  0  0  0  0  0  0  0  0  0
   46.1450   48.0880   18.8260 C   0  0  0  0  0  0  0  0  0  0  0  0
   48.7210   48.5380   16.5020 S   0  0  0  0  0  0  0  0  0  0  0  0
   50.3980   49.8670   14.7990 C   0  0  0  0  0  0  0  0  0  0  0  0
   49.4850   50.1060   16.0030 C   0  0  2  0  0  0  0  0  0  0  0  0
   50.2960   50.6560   17.1470 C   0  0  0  0  0  0  0  0  0  0  0  0
   49.7080   50.8940   18.3370 N   0  0  0  0  0  0  0  0  0  0  0  0
   48.7630   50.7120   18.4550 H   0  0  0  0  0  0  0  0  0  0  0  0
   51.4780   50.8840   16.9990 O   0  0  0  0  0  0  0  0  0  0  0  0
   50.4540   51.4010   19.3900 C   0  0  0  0  0  0  0  0  0  0  0  0
   51.2830   50.7070   20.2600 C   0  0  0  0  0  0  0  0  0  0  0  0
   51.9490   51.4870   21.2780 C   0  0  0  0  0  0  0  0  0  0  0  0
   51.6890   52.8080   21.2690 C   0  0  0  0  0  0  0  0  0  0  0  0
   50.5670   52.9950   19.9000 S   0  0  0  0  0  0  0  0  0  0  0  0
   51.4730   49.2580   20.1520 C   0  0  0  0  0  0  0  0  0  0  0  0
   52.7120   48.7490   20.0040 N   0  0  0  0  0  0  0  0  0  0  0  0
   52.8380   47.7900   19.9320 H   0  0  0  0  0  0  0  0  0  0  0  0
   53.4790   49.3430   19.9690 H   0  0  0  0  0  0  0  0  0  0  0  0
   50.5110   48.5120   20.1950 O   0  0  0  0  0  0  0  0  0  0  0  0
  1  6  1  0  0  0  0
  1 20  1  6  0  0  0
  2  1  1  0  0  0  0
  3  2  1  0  0  0  0
  4  2  1  0  0  0  0
  4  5  2  0  0  0  0
  5  6  1  0  0  0  0
  6 17  1  0  0  0  0
  7  5  1  0  0  0  0
  7 16  2  0  0  0  0
  8 13  1  0  0  0  0
  8  7  1  0  0  0  0
  9  8  2  0  0  0  0
 10 11  2  0  0  0  0
 10  9  1  0  0  0  0
 11 12  1  0  0  0  0
 12 13  2  0  0  0  0
 13 14  1  0  0  0  0
 14 15  1  0  0  0  0
 14 16  1  0  0  0  0
 17 18  1  0  0  0  0
 17 19  1  0  0  0  0
 18 19  1  0  0  0  0
 22 21  1  1  0  0  0
 22 20  1  0  0  0  0
 22 23  1  0  0  0  0
 23 24  1  0  0  0  0
 24 25  1  0  0  0  0
 24 27  1  0  0  0  0
 26 23  2  0  0  0  0
 27 31  1  0  0  0  0
 27 28  2  0  0  0  0
 28 29  1  0  0  0  0
 30 29  2  0  0  0  0
 31 30  1  0  0  0  0
 32 36  2  0  0  0  0
 32 28  1  0  0  0  0
 33 32  1  0  0  0  0
 34 33  1  0  0  0  0
 35 33  1  0  0  0  0
M  END
>  <MODEL>
6

>  <REMARK>
  Name = ZINC39995868
                            x       y       z     vdW  Elec       q    Type
                         _______ _______ _______ _____ _____    ______ ____

>  <TORSDO>
F 7

>  <minimizedAffinity>
-8.3938528390130838

$$$$
ZINC39995868
 OpenBabel10211213123D

 36 40  0  0  1  0  0  0  0  0999 V2000
   49.4280   52.0550   17.4500 C   0  0  1  0  0  0  0  0  0  0  0  0
   48.2580   52.9330   17.2860 N   0  0  0  0  0  0  0  0  0  0  0  0
   47.5220   52.8090   16.6660 H   0  0  0  0  0  0  0  0  0  0  0  0
   48.4170   53.9830   18.1970 N   0  0  0  0  0  0  0  0  0  0  0  0
   49.5220   53.8520   18.8840 C   0  0  0  0  0  0  0  0  0  0  0  0
   50.2240   52.7010   18.5060 N   0  0  0  0  0  0  0  0  0  0  0  0
   49.9500   54.7510   19.8720 C   0  0  0  0  0  0  0  0  0  0  0  0
   49.2930   55.9010   20.3090 C   0  0  0  0  0  0  0  0  0  0  0  0
   48.0710   56.5010   19.9340 C   0  0  0  0  0  0  0  0  0  0  0  0
   47.6690   57.6460   20.5430 C   0  0  0  0  0  0  0  0  0  0  0  0
   48.4360   58.2530   21.5390 C   0  0  0  0  0  0  0  0  0  0  0  0
   49.6180   57.7330   21.9480 C   0  0  0  0  0  0  0  0  0  0  0  0
   50.1050   56.5380   21.3580 C   0  0  0  0  0  0  0  0  0  0  0  0
   51.2050   55.8420   21.5760 N   0  0  0  0  0  0  0  0  0  0  0  0
   51.8920   56.0670   22.2210 H   0  0  0  0  0  0  0  0  0  0  0  0
   51.2190   54.6720   20.6920 C   0  0  0  0  0  0  0  0  0  0  0  0
   51.4990   52.2310   19.0530 C   0  0  0  0  0  0  0  0  0  0  0  0
   52.3500   51.3130   18.1730 C   0  0  0  0  0  0  0  0  0  0  0  0
   51.6180   50.7440   19.3900 C   0  0  0  0  0  0  0  0  0  0  0  0
   48.9080   50.3980   17.9710 S   0  0  0  0  0  0  0  0  0  0  0  0
   49.9120   50.1860   15.4360 C   0  0  0  0  0  0  0  0  0  0  0  0
   49.4180   49.3250   16.6000 C   0  0  2  0  0  0  0  0  0  0  0  0
   48.2440   48.4950   16.1490 C   0  0  0  0  0  0  0  0  0  0  0  0
   47.0290   49.0640   16.0130 N   0  0  0  0  0  0  0  0  0  0  0  0
   46.9110   50.0070   16.2060 H   0  0  0  0  0  0  0  0  0  0  0  0
   48.3920   47.3160   15.9080 O   0  0  0  0  0  0  0  0  0  0  0  0
   45.9490   48.3000   15.5980 C   0  0  0  0  0  0  0  0  0  0  0  0
   45.0060   47.6570   16.3860 C   0  0  0  0  0  0  0  0  0  0  0  0
   43.9750   46.9220   15.6900 C   0  0  0  0  0  0  0  0  0  0  0  0
   44.0430   46.9450   14.3460 C   0  0  0  0  0  0  0  0  0  0  0  0
   45.4770   47.9490   14.0260 S   0  0  0  0  0  0  0  0  0  0  0  0
   45.0550   47.7170   17.8490 C   0  0  0  0  0  0  0  0  0  0  0  0
   43.9110   47.7210   18.5630 N   0  0  0  0  0  0  0  0  0  0  0  0
   43.9430   47.7620   19.5310 H   0  0  0  0  0  0  0  0  0  0  0  0
   43.0550   47.6830   18.1070 H   0  0  0  0  0  0  0  0  0  0  0  0
   46.1280   47.7660   18.4220 O   0  0  0  0  0  0  0  0  0  0  0  0
  1 20  1  1  0  0  0
  1  6  1  0  0  0  0
  2  1  1  0  0  0  0
  2  4  1  0  0  0  0
  3  2  1  0  0  0  0
  4  5  2  0  0  0  0
  5  7  1  0  0  0  0
  6  5  1  0  0  0  0
  6 17  1  0  0  0  0
  7  8  1  0  0  0  0
  7 16  2  0  0  0  0
  8 13  1  0  0  0  0
  9  8  2  0  0  0  0
  9 10  1  0  0  0  0
 10 11  2  0  0  0  0
 11 12  1  0  0  0  0
 13 14  1  0  0  0  0
 13 12  2  0  0  0  0
 14 15  1  0  0  0  0
 16 14  1  0  0  0  0
 17 19  1  0  0  0  0
 18 17  1  0  0  0  0
 18 19  1  0  0  0  0
 22 21  1  6  0  0  0
 22 20  1  0  0  0  0
 23 22  1  0  0  0  0
 24 23  1  0  0  0  0
 24 25  1  0  0  0  0
 26 23  2  0  0  0  0
 27 24  1  0  0  0  0
 27 28  2  0  0  0  0
 28 32  1  0  0  0  0
 29 28  1  0  0  0  0
 30 29  2  0  0  0  0
 31 30  1  0  0  0  0
 31 27  1  0  0  0  0
 32 36  2  0  0  0  0
 32 33  1  0  0  0  0
 33 34  1  0  0  0  0
 35 33  1  0  0  0  0
M  END
>  <MODEL>
7

>  <REMARK>
  Name = ZINC39995868
                            x       y       z     vdW  Elec       q    Type
                         _______ _______ _______ _____ _____    ______ ____

>  <TORSDO>
F 7

>  <minimizedAffinity>
-8.3031221285472334

$$$$
ZINC39995868
 OpenBabel10211213123D

 36 40  0  0  1  0  0  0  0  0999 V2000
   47.5470   49.5030   18.1080 C   0  0  1  0  0  0  0  0  0  0  0  0
   48.3360   48.6580   19.0200 N   0  0  0  0  0  0  0  0  0  0  0  0
   48.0510   47.8290   19.4340 H   0  0  0  0  0  0  0  0  0  0  0  0
   49.5760   49.2890   19.1740 N   0  0  0  0  0  0  0  0  0  0  0  0
   49.6360   50.3940   18.4780 C   0  0  0  0  0  0  0  0  0  0  0  0
   48.4430   50.6250   17.7830 N   0  0  0  0  0  0  0  0  0  0  0  0
   50.7540   51.2410   18.4340 C   0  0  0  0  0  0  0  0  0  0  0  0
   51.0020   52.3530   19.2370 C   0  0  0  0  0  0  0  0  0  0  0  0
   50.2700   52.9550   20.2840 C   0  0  0  0  0  0  0  0  0  0  0  0
   50.7660   54.0570   20.9040 C   0  0  0  0  0  0  0  0  0  0  0  0
   51.9900   54.6170   20.5340 C   0  0  0  0  0  0  0  0  0  0  0  0
   52.7450   54.0910   19.5390 C   0  0  0  0  0  0  0  0  0  0  0  0
   52.2930   52.9410   18.8430 C   0  0  0  0  0  0  0  0  0  0  0  0
   52.8310   52.2500   17.8560 N   0  0  0  0  0  0  0  0  0  0  0  0
   53.6800   52.4470   17.4320 H   0  0  0  0  0  0  0  0  0  0  0  0
   51.9460   51.1330   17.5090 C   0  0  0  0  0  0  0  0  0  0  0  0
   48.1420   51.7600   16.9070 C   0  0  0  0  0  0  0  0  0  0  0  0
   48.0830   53.1500   17.5440 C   0  0  0  0  0  0  0  0  0  0  0  0
   46.7940   52.4590   17.0930 C   0  0  0  0  0  0  0  0  0  0  0  0
   47.1140   48.5830   16.6060 S   0  0  0  0  0  0  0  0  0  0  0  0
   44.6910   48.3310   17.8480 C   0  0  0  0  0  0  0  0  0  0  0  0
   45.3090   48.7280   16.5070 C   0  0  2  0  0  0  0  0  0  0  0  0
   44.7910   47.8150   15.4250 C   0  0  0  0  0  0  0  0  0  0  0  0
   45.6510   47.2330   14.5650 N   0  0  0  0  0  0  0  0  0  0  0  0
   46.6030   47.4040   14.6410 H   0  0  0  0  0  0  0  0  0  0  0  0
   43.6010   47.6020   15.3290 O   0  0  0  0  0  0  0  0  0  0  0  0
   45.1750   46.3940   13.5690 C   0  0  0  0  0  0  0  0  0  0  0  0
   44.7800   45.0690   13.6870 C   0  0  0  0  0  0  0  0  0  0  0  0
   44.3200   44.4220   12.4800 C   0  0  0  0  0  0  0  0  0  0  0  0
   44.3240   45.1820   11.3690 C   0  0  0  0  0  0  0  0  0  0  0  0
   44.9360   46.7500   11.9470 S   0  0  0  0  0  0  0  0  0  0  0  0
   44.8290   44.3620   14.9700 C   0  0  0  0  0  0  0  0  0  0  0  0
   43.7390   44.3270   15.7630 N   0  0  0  0  0  0  0  0  0  0  0  0
   43.7710   43.8600   16.6110 H   0  0  0  0  0  0  0  0  0  0  0  0
   42.9220   44.7700   15.4830 H   0  0  0  0  0  0  0  0  0  0  0  0
   45.8530   43.8070   15.3210 O   0  0  0  0  0  0  0  0  0  0  0  0
  1 20  1  6  0  0  0
  1  2  1  0  0  0  0
  2  4  1  0  0  0  0
  2  3  1  0  0  0  0
  5  4  2  0  0  0  0
  6  1  1  0  0  0  0
  6  5  1  0  0  0  0
  7  5  1  0  0  0  0
  7  8  1  0  0  0  0
  8  9  1  0  0  0  0
  9 10  2  0  0  0  0
 11 10  1  0  0  0  0
 12 11  2  0  0  0  0
 13  8  2  0  0  0  0
 13 12  1  0  0  0  0
 14 13  1  0  0  0  0
 15 14  1  0  0  0  0
 16 14  1  0  0  0  0
 16  7  2  0  0  0  0
 17 19  1  0  0  0  0
 17 18  1  0  0  0  0
 17  6  1  0  0  0  0
 19 18  1  0  0  0  0
 22 23  1  1  0  0  0
 22 20  1  0  0  0  0
 22 21  1  0  0  0  0
 24 25  1  0  0  0  0
 24 23  1  0  0  0  0
 26 23  2  0  0  0  0
 27 28  2  0  0  0  0
 27 24  1  0  0  0  0
 28 32  1  0  0  0  0
 29 28  1  0  0  0  0
 30 31  1  0  0  0  0
 30 29  2  0  0  0  0
 31 27  1  0  0  0  0
 32 36  2  0  0  0  0
 32 33  1  0  0  0  0
 33 34  1  0  0  0  0
 35 33  1  0  0  0  0
M  END
>  <MODEL>
8

>  <REMARK>
  Name = ZINC39995868
                            x       y       z     vdW  Elec       q    Type
                         _______ _______ _______ _____ _____    ______ ____

>  <TORSDO>
F 7

>  <minimizedAffinity>
-7.8633303009002686

$$$$
ZINC39995868
 OpenBabel10211213123D

 36 40  0  0  1  0  0  0  0  0999 V2000
   49.7750   51.6040   17.5700 C   0  0  1  0  0  0  0  0  0  0  0  0
   49.0030   52.4380   16.6340 N   0  0  0  0  0  0  0  0  0  0  0  0
   48.6820   52.1790   15.7560 H   0  0  0  0  0  0  0  0  0  0  0  0
   48.8290   53.6790   17.2570 N   0  0  0  0  0  0  0  0  0  0  0  0
   49.3880   53.7000   18.4380 C   0  0  0  0  0  0  0  0  0  0  0  0
   50.0010   52.4770   18.7340 N   0  0  0  0  0  0  0  0  0  0  0  0
   49.3780   54.8090   19.2980 C   0  0  0  0  0  0  0  0  0  0  0  0
   50.4660   55.5960   19.6740 C   0  0  0  0  0  0  0  0  0  0  0  0
   51.8380   55.5480   19.3410 C   0  0  0  0  0  0  0  0  0  0  0  0
   52.6900   56.4650   19.8670 C   0  0  0  0  0  0  0  0  0  0  0  0
   52.2450   57.4640   20.7350 C   0  0  0  0  0  0  0  0  0  0  0  0
   50.9440   57.5700   21.0970 C   0  0  0  0  0  0  0  0  0  0  0  0
   49.9930   56.6480   20.5890 C   0  0  0  0  0  0  0  0  0  0  0  0
   48.6930   56.5380   20.7830 N   0  0  0  0  0  0  0  0  0  0  0  0
   48.1590   57.1190   21.3470 H   0  0  0  0  0  0  0  0  0  0  0  0
   48.1810   55.4040   20.0070 C   0  0  0  0  0  0  0  0  0  0  0  0
   50.7260   52.1320   19.9590 C   0  0  0  0  0  0  0  0  0  0  0  0
   52.2550   52.1890   19.9170 C   0  0  0  0  0  0  0  0  0  0  0  0
   51.5400   50.8370   19.9570 C   0  0  0  0  0  0  0  0  0  0  0  0
   48.8170   50.1410   18.0530 S   0  0  0  0  0  0  0  0  0  0  0  0
   50.0750   49.5270   15.7030 C   0  0  0  0  0  0  0  0  0  0  0  0
   48.9560   49.0350   16.6220 C   0  0  2  0  0  0  0  0  0  0  0  0
   47.6530   49.0260   15.8660 C   0  0  0  0  0  0  0  0  0  0  0  0
   47.2390   47.9010   15.2480 N   0  0  0  0  0  0  0  0  0  0  0  0
   47.7820   47.0970   15.2900 H   0  0  0  0  0  0  0  0  0  0  0  0
   46.9750   50.0300   15.8140 O   0  0  0  0  0  0  0  0  0  0  0  0
   46.0400   47.8920   14.5520 C   0  0  0  0  0  0  0  0  0  0  0  0
   44.7680   47.6500   15.0480 C   0  0  0  0  0  0  0  0  0  0  0  0
   43.6820   47.7040   14.0950 C   0  0  0  0  0  0  0  0  0  0  0  0
   44.0290   47.9850   12.8260 C   0  0  0  0  0  0  0  0  0  0  0  0
   45.7950   48.1810   12.9170 S   0  0  0  0  0  0  0  0  0  0  0  0
   44.5360   47.3540   16.4640 C   0  0  0  0  0  0  0  0  0  0  0  0
   44.5880   46.0810   16.9050 N   0  0  0  0  0  0  0  0  0  0  0  0
   44.4350   45.8850   17.8420 H   0  0  0  0  0  0  0  0  0  0  0  0
   44.7800   45.3610   16.2830 H   0  0  0  0  0  0  0  0  0  0  0  0
   44.2950   48.2570   17.2440 O   0  0  0  0  0  0  0  0  0  0  0  0
  1 20  1  1  0  0  0
  1  6  1  0  0  0  0
  2  4  1  0  0  0  0
  2  1  1  0  0  0  0
  3  2  1  0  0  0  0
  4  5  2  0  0  0  0
  5  6  1  0  0  0  0
  5  7  1  0  0  0  0
  6 17  1  0  0  0  0
  7  8  1  0  0  0  0
  7 16  2  0  0  0  0
  8 13  1  0  0  0  0
  9  8  2  0  0  0  0
  9 10  1  0  0  0  0
 10 11  2  0  0  0  0
 11 12  1  0  0  0  0
 13 14  1  0  0  0  0
 13 12  2  0  0  0  0
 14 15  1  0  0  0  0
 16 14  1  0  0  0  0
 18 19  1  0  0  0  0
 18 17  1  0  0  0  0
 19 17  1  0  0  0  0
 22 21  1  6  0  0  0
 22 20  1  0  0  0  0
 23 22  1  0  0  0  0
 24 25  1  0  0  0  0
 24 23  1  0  0  0  0
 26 23  2  0  0  0  0
 27 28  2  0  0  0  0
 27 24  1  0  0  0  0
 28 32  1  0  0  0  0
 29 28  1  0  0  0  0
 30 31  1  0  0  0  0
 30 29  2  0  0  0  0
 31 27  1  0  0  0  0
 32 33  1  0  0  0  0
 32 36  2  0  0  0  0
 33 34  1  0  0  0  0
 35 33  1  0  0  0  0
M  END
>  <MODEL>
9

>  <REMARK>
  Name = ZINC39995868
                            x       y       z     vdW  Elec       q    Type
                         _______ _______ _______ _____ _____    ______ ____

>  <TORSDO>
F 7

>  <minimizedAffinity>
-7.7894764630196436

$$$$
ZINC48842024
 OpenBabel10211213133D

 22 23  0  0  1  0  0  0  0  0999 V2000
   50.1020   50.9510   18.9180 N   0  0  0  0  0  0  0  0  0  0  0  0
   49.7780   51.6930   18.3820 H   0  0  0  0  0  0  0  0  0  0  0  0
   49.4680   49.7630   18.8750 C   0  0  0  0  0  0  0  0  0  0  0  0
   48.3830   49.6050   18.0910 N   0  0  0  0  0  0  0  0  0  0  0  0
   47.8940   50.7250   17.2830 C   0  0  0  0  0  0  0  0  0  0  0  0
   49.8730   48.8330   19.5460 O   0  0  0  0  0  0  0  0  0  0  0  0
   47.6930   48.3130   18.0450 C   0  0  0  0  0  0  0  0  0  0  0  0
   47.7420   47.7570   16.6200 C   0  0  0  0  0  0  0  0  0  0  0  0
   46.9520   46.4470   16.5620 C   0  0  0  0  0  0  0  0  0  0  0  0
   45.5580   46.6960   16.9440 N   0  0  0  0  0  0  0  0  0  0  0  0
   45.0270   45.8430   16.8530 H   0  0  0  0  0  0  0  0  0  0  0  0
   45.1630   47.4000   16.3370 H   0  0  0  0  0  0  0  0  0  0  0  0
   45.4970   47.1620   18.3340 C   0  0  0  0  0  0  0  0  0  0  0  0
   46.2310   48.4990   18.4600 C   0  0  0  0  0  0  0  0  0  0  0  0
   51.0810   50.3510   21.0770 C   0  0  0  0  0  0  0  0  0  0  0  0
   51.2800   51.1230   19.7710 C   0  0  1  0  0  0  0  0  0  0  0  0
   52.4990   50.5960   19.0570 C   0  0  0  0  0  0  0  0  0  0  0  0
   53.3000   49.8960   19.6530 O   0  0  0  0  0  0  0  0  0  0  0  0
   52.6820   50.8670   17.8820 O   0  0  0  0  0  0  0  0  0  0  0  0
   51.4740   52.6090   20.0810 C   0  0  0  0  0  0  0  0  0  0  0  0
   51.7490   52.9970   21.5340 C   0  0  0  0  0  0  0  0  0  0  0  0
   50.3900   53.3060   20.9040 C   0  0  0  0  0  0  0  0  0  0  0  0
  2  1  1  0  0  0  0
  3  1  1  0  0  0  0
  3  6  2  0  0  0  0
  4  3  1  0  0  0  0
  5  4  1  0  0  0  0
  7  4  1  0  0  0  0
  7 14  1  0  0  0  0
  8  7  1  0  0  0  0
  9  8  1  0  0  0  0
  9 10  1  0  0  0  0
 10 13  1  0  0  0  0
 11 10  1  0  0  0  0
 12 10  1  0  0  0  0
 13 14  1  0  0  0  0
 16  1  1  6  0  0  0
 16 20  1  0  0  0  0
 16 15  1  0  0  0  0
 17 18  1  0  0  0  0
 17 16  1  0  0  0  0
 19 17  2  0  0  0  0
 20 22  1  0  0  0  0
 20 21  1  0  0  0  0
 22 21  1  0  0  0  0
M  END
>  <MODEL>
1

>  <REMARK>
  Name = ZINC48842024
                            x       y       z     vdW  Elec       q    Type
                         _______ _______ _______ _____ _____    ______ ____

>  <TORSDO>
F 4

>  <minimizedAffinity>
-7.1157270940386015

$$$$
ZINC48842024
 OpenBabel10211213133D

 22 23  0  0  1  0  0  0  0  0999 V2000
   52.2290   55.3810   20.4860 N   0  0  0  0  0  0  0  0  0  0  0  0
   52.8280   55.5390   19.7380 H   0  0  0  0  0  0  0  0  0  0  0  0
   51.7300   54.1480   20.7000 C   0  0  0  0  0  0  0  0  0  0  0  0
   52.0590   53.1340   19.8750 N   0  0  0  0  0  0  0  0  0  0  0  0
   52.9620   53.3720   18.7460 C   0  0  0  0  0  0  0  0  0  0  0  0
   50.9800   53.9500   21.6370 O   0  0  0  0  0  0  0  0  0  0  0  0
   51.5150   51.7940   20.1070 C   0  0  0  0  0  0  0  0  0  0  0  0
   52.6310   50.7560   19.9600 C   0  0  0  0  0  0  0  0  0  0  0  0
   52.0410   49.3540   20.1250 C   0  0  0  0  0  0  0  0  0  0  0  0
   51.0190   49.1250   19.0970 N   0  0  0  0  0  0  0  0  0  0  0  0
   50.6700   48.1820   19.1750 H   0  0  0  0  0  0  0  0  0  0  0  0
   51.4270   49.2560   18.1830 H   0  0  0  0  0  0  0  0  0  0  0  0
   49.9110   50.0710   19.2770 C   0  0  0  0  0  0  0  0  0  0  0  0
   50.4200   51.5010   19.0790 C   0  0  0  0  0  0  0  0  0  0  0  0
   51.5270   55.9230   22.7640 C   0  0  0  0  0  0  0  0  0  0  0  0
   51.8710   56.4830   21.3820 C   0  0  1  0  0  0  0  0  0  0  0  0
   53.0340   57.4340   21.5010 C   0  0  0  0  0  0  0  0  0  0  0  0
   53.9560   57.1780   22.2570 O   0  0  0  0  0  0  0  0  0  0  0  0
   53.0530   58.4580   20.8400 O   0  0  0  0  0  0  0  0  0  0  0  0
   50.6590   57.2270   20.8170 C   0  0  0  0  0  0  0  0  0  0  0  0
   49.6700   57.8270   21.8160 C   0  0  0  0  0  0  0  0  0  0  0  0
   49.2840   56.5870   21.0090 C   0  0  0  0  0  0  0  0  0  0  0  0
  1  3  1  0  0  0  0
  2  1  1  0  0  0  0
  3  6  2  0  0  0  0
  4  7  1  0  0  0  0
  4  3  1  0  0  0  0
  5  4  1  0  0  0  0
  8  7  1  0  0  0  0
  8  9  1  0  0  0  0
 10 11  1  0  0  0  0
 10 13  1  0  0  0  0
 10  9  1  0  0  0  0
 12 10  1  0  0  0  0
 14 13  1  0  0  0  0
 14  7  1  0  0  0  0
 16  1  1  6  0  0  0
 16 17  1  0  0  0  0
 16 15  1  0  0  0  0
 17 18  1  0  0  0  0
 19 17  2  0  0  0  0
 20 22  1  0  0  0  0
 20 16  1  0  0  0  0
 20 21  1  0  0  0  0
 22 21  1  0  0  0  0
M  END
>  <MODEL>
2

>  <REMARK>
  Name = ZINC48842024
                            x       y       z     vdW  Elec       q    Type
                         _______ _______ _______ _____ _____    ______ ____

>  <TORSDO>
F 4

>  <minimizedAffinity>
-7.0145229337374397

$$$$
ZINC48842024
 OpenBabel10211213133D

 22 23  0  0  1  0  0  0  0  0999 V2000
   48.0990   48.7550   18.2040 N   0  0  0  0  0  0  0  0  0  0  0  0
   48.3610   48.0210   18.7810 H   0  0  0  0  0  0  0  0  0  0  0  0
   48.7700   49.9230   18.2530 C   0  0  0  0  0  0  0  0  0  0  0  0
   49.8030   50.0710   19.1050 N   0  0  0  0  0  0  0  0  0  0  0  0
   50.1990   48.9630   19.9780 C   0  0  0  0  0  0  0  0  0  0  0  0
   48.4410   50.8430   17.5290 O   0  0  0  0  0  0  0  0  0  0  0  0
   50.5320   51.3410   19.1590 C   0  0  0  0  0  0  0  0  0  0  0  0
   51.8030   51.2380   18.3110 C   0  0  0  0  0  0  0  0  0  0  0  0
   52.5990   52.5390   18.4360 C   0  0  0  0  0  0  0  0  0  0  0  0
   52.9620   52.7620   19.8400 N   0  0  0  0  0  0  0  0  0  0  0  0
   53.5320   53.5920   19.9110 H   0  0  0  0  0  0  0  0  0  0  0  0
   53.4840   51.9680   20.1820 H   0  0  0  0  0  0  0  0  0  0  0  0
   51.7480   52.9330   20.6470 C   0  0  0  0  0  0  0  0  0  0  0  0
   50.9200   51.6480   20.6080 C   0  0  0  0  0  0  0  0  0  0  0  0
   46.1230   49.8650   17.2840 C   0  0  0  0  0  0  0  0  0  0  0  0
   46.9750   48.5940   17.2770 C   0  0  1  0  0  0  0  0  0  0  0  0
   47.5020   48.3490   15.8860 C   0  0  0  0  0  0  0  0  0  0  0  0
   46.8690   48.7350   14.9180 O   0  0  0  0  0  0  0  0  0  0  0  0
   48.5610   47.7660   15.7300 O   0  0  0  0  0  0  0  0  0  0  0  0
   46.1200   47.4030   17.7160 C   0  0  0  0  0  0  0  0  0  0  0  0
   44.6140   47.6300   17.8580 C   0  0  0  0  0  0  0  0  0  0  0  0
   45.4840   47.4640   19.1050 C   0  0  0  0  0  0  0  0  0  0  0  0
  1  3  1  0  0  0  0
  1  2  1  0  0  0  0
  3  4  1  0  0  0  0
  4  7  1  0  0  0  0
  4  5  1  0  0  0  0
  6  3  2  0  0  0  0
  7 14  1  0  0  0  0
  8  9  1  0  0  0  0
  8  7  1  0  0  0  0
  9 10  1  0  0  0  0
 10 11  1  0  0  0  0
 10 12  1  0  0  0  0
 10 13  1  0  0  0  0
 14 13  1  0  0  0  0
 16 17  1  6  0  0  0
 16 15  1  0  0  0  0
 16 20  1  0  0  0  0
 16  1  1  0  0  0  0
 18 17  2  0  0  0  0
 19 17  1  0  0  0  0
 20 21  1  0  0  0  0
 20 22  1  0  0  0  0
 21 22  1  0  0  0  0
M  END
>  <MODEL>
3

>  <REMARK>
  Name = ZINC48842024
                            x       y       z     vdW  Elec       q    Type
                         _______ _______ _______ _____ _____    ______ ____

>  <TORSDO>
F 4

>  <minimizedAffinity>
-6.7705240988922766

$$$$
ZINC48842024
 OpenBabel10211213133D

 22 23  0  0  1  0  0  0  0  0999 V2000
   50.2050   51.8800   17.8600 N   0  0  0  0  0  0  0  0  0  0  0  0
   49.9890   52.6750   17.3470 H   0  0  0  0  0  0  0  0  0  0  0  0
   49.4570   50.7670   17.7220 C   0  0  0  0  0  0  0  0  0  0  0  0
   48.4100   50.7590   16.8740 N   0  0  0  0  0  0  0  0  0  0  0  0
   48.0840   51.9590   16.1000 C   0  0  0  0  0  0  0  0  0  0  0  0
   49.7280   49.7700   18.3640 O   0  0  0  0  0  0  0  0  0  0  0  0
   47.5970   49.5490   16.7250 C   0  0  0  0  0  0  0  0  0  0  0  0
   47.4850   49.1870   15.2410 C   0  0  0  0  0  0  0  0  0  0  0  0
   46.5700   47.9700   15.0870 C   0  0  0  0  0  0  0  0  0  0  0  0
   45.2390   48.2840   15.6170 N   0  0  0  0  0  0  0  0  0  0  0  0
   44.6230   47.4990   15.4660 H   0  0  0  0  0  0  0  0  0  0  0  0
   44.8700   49.0940   15.1410 H   0  0  0  0  0  0  0  0  0  0  0  0
   45.3290   48.5620   17.0560 C   0  0  0  0  0  0  0  0  0  0  0  0
   46.1950   49.8010   17.2860 C   0  0  0  0  0  0  0  0  0  0  0  0
   52.2130   50.6560   18.5280 C   0  0  0  0  0  0  0  0  0  0  0  0
   51.3430   51.8890   18.7820 C   0  0  1  0  0  0  0  0  0  0  0  0
   52.1600   53.1360   18.5600 C   0  0  0  0  0  0  0  0  0  0  0  0
   53.3330   53.0460   18.2370 O   0  0  0  0  0  0  0  0  0  0  0  0
   51.6480   54.2330   18.7030 O   0  0  0  0  0  0  0  0  0  0  0  0
   50.8310   51.8640   20.2240 C   0  0  0  0  0  0  0  0  0  0  0  0
   51.8630   52.0210   21.3420 C   0  0  0  0  0  0  0  0  0  0  0  0
   51.2120   50.6610   21.0880 C   0  0  0  0  0  0  0  0  0  0  0  0
  2  1  1  0  0  0  0
  3  1  1  0  0  0  0
  3  6  2  0  0  0  0
  4  3  1  0  0  0  0
  5  4  1  0  0  0  0
  7  4  1  0  0  0  0
  7 14  1  0  0  0  0
  8  7  1  0  0  0  0
  9  8  1  0  0  0  0
  9 10  1  0  0  0  0
 10 13  1  0  0  0  0
 11 10  1  0  0  0  0
 12 10  1  0  0  0  0
 13 14  1  0  0  0  0
 15 16  1  0  0  0  0
 16  1  1  6  0  0  0
 16 20  1  0  0  0  0
 17 19  1  0  0  0  0
 17 16  1  0  0  0  0
 18 17  2  0  0  0  0
 20 22  1  0  0  0  0
 20 21  1  0  0  0  0
 22 21  1  0  0  0  0
M  END
>  <MODEL>
4

>  <REMARK>
  Name = ZINC48842024
                            x       y       z     vdW  Elec       q    Type
                         _______ _______ _______ _____ _____    ______ ____

>  <TORSDO>
F 4

>  <minimizedAffinity>
-6.7477251071719122

$$$$
ZINC48842024
 OpenBabel10211213133D

 22 23  0  0  1  0  0  0  0  0999 V2000
   49.4110   49.2390   18.0020 N   0  0  0  0  0  0  0  0  0  0  0  0
   50.0820   48.6150   18.3220 H   0  0  0  0  0  0  0  0  0  0  0  0
   49.5090   50.5480   18.3100 C   0  0  0  0  0  0  0  0  0  0  0  0
   50.5360   50.9890   19.0630 N   0  0  0  0  0  0  0  0  0  0  0  0
   51.5480   50.0450   19.5470 C   0  0  0  0  0  0  0  0  0  0  0  0
   48.6700   51.3300   17.9090 O   0  0  0  0  0  0  0  0  0  0  0  0
   50.6420   52.4110   19.3980 C   0  0  0  0  0  0  0  0  0  0  0  0
   51.9030   52.9960   18.7560 C   0  0  0  0  0  0  0  0  0  0  0  0
   52.0490   54.4600   19.1750 C   0  0  0  0  0  0  0  0  0  0  0  0
   52.1570   54.5470   20.6360 N   0  0  0  0  0  0  0  0  0  0  0  0
   52.3070   55.5070   20.9050 H   0  0  0  0  0  0  0  0  0  0  0  0
   52.9370   53.9860   20.9490 H   0  0  0  0  0  0  0  0  0  0  0  0
   50.9220   54.0540   21.2570 C   0  0  0  0  0  0  0  0  0  0  0  0
   50.7320   52.5740   20.9180 C   0  0  0  0  0  0  0  0  0  0  0  0
   48.5490   47.3080   16.7750 C   0  0  0  0  0  0  0  0  0  0  0  0
   48.2950   48.7600   17.1840 C   0  0  1  0  0  0  0  0  0  0  0  0
   47.0170   48.8420   17.9790 C   0  0  0  0  0  0  0  0  0  0  0  0
   46.0700   49.4760   17.5460 O   0  0  0  0  0  0  0  0  0  0  0  0
   46.9300   48.2730   19.0540 O   0  0  0  0  0  0  0  0  0  0  0  0
   48.1720   49.6300   15.9300 C   0  0  0  0  0  0  0  0  0  0  0  0
   47.7080   48.9490   14.6420 C   0  0  0  0  0  0  0  0  0  0  0  0
   49.1670   49.3790   14.7970 C   0  0  0  0  0  0  0  0  0  0  0  0
  1  3  1  0  0  0  0
  1  2  1  0  0  0  0
  3  4  1  0  0  0  0
  4  7  1  0  0  0  0
  4  5  1  0  0  0  0
  6  3  2  0  0  0  0
  7 14  1  0  0  0  0
  8  9  1  0  0  0  0
  8  7  1  0  0  0  0
  9 10  1  0  0  0  0
 10 11  1  0  0  0  0
 10 12  1  0  0  0  0
 10 13  1  0  0  0  0
 14 13  1  0  0  0  0
 15 16  1  0  0  0  0
 16 20  1  6  0  0  0
 16 17  1  0  0  0  0
 16  1  1  0  0  0  0
 17 19  1  0  0  0  0
 18 17  2  0  0  0  0
 21 22  1  0  0  0  0
 21 20  1  0  0  0  0
 22 20  1  0  0  0  0
M  END
>  <MODEL>
5

>  <REMARK>
  Name = ZINC48842024
                            x       y       z     vdW  Elec       q    Type
                         _______ _______ _______ _____ _____    ______ ____

>  <TORSDO>
F 4

>  <minimizedAffinity>
-6.5879721382433951

$$$$
ZINC48842024
 OpenBabel10211213133D

 22 23  0  0  1  0  0  0  0  0999 V2000
   50.0020   53.2450   18.4990 N   0  0  0  0  0  0  0  0  0  0  0  0
   49.6470   54.0070   18.0140 H   0  0  0  0  0  0  0  0  0  0  0  0
   49.5840   52.0000   18.1950 C   0  0  0  0  0  0  0  0  0  0  0  0
   48.6720   51.8130   17.2210 N   0  0  0  0  0  0  0  0  0  0  0  0
   48.1350   52.9640   16.4900 C   0  0  0  0  0  0  0  0  0  0  0  0
   50.0300   51.0450   18.8020 O   0  0  0  0  0  0  0  0  0  0  0  0
   48.2170   50.4600   16.8920 C   0  0  0  0  0  0  0  0  0  0  0  0
   48.4360   50.1950   15.4000 C   0  0  0  0  0  0  0  0  0  0  0  0
   47.8860   48.8110   15.0470 C   0  0  0  0  0  0  0  0  0  0  0  0
   46.4510   48.7590   15.3490 N   0  0  0  0  0  0  0  0  0  0  0  0
   46.0810   47.8650   15.0660 H   0  0  0  0  0  0  0  0  0  0  0  0
   45.9750   49.4930   14.8450 H   0  0  0  0  0  0  0  0  0  0  0  0
   46.2390   48.9410   16.7900 C   0  0  0  0  0  0  0  0  0  0  0  0
   46.7250   50.3300   17.2100 C   0  0  0  0  0  0  0  0  0  0  0  0
   50.5150   52.7640   20.8410 C   0  0  0  0  0  0  0  0  0  0  0  0
   50.9930   53.4470   19.5580 C   0  0  1  0  0  0  0  0  0  0  0  0
   52.3110   52.8510   19.1330 C   0  0  0  0  0  0  0  0  0  0  0  0
   52.8490   52.0040   19.8260 O   0  0  0  0  0  0  0  0  0  0  0  0
   52.8390   53.2150   18.0950 O   0  0  0  0  0  0  0  0  0  0  0  0
   51.1700   54.9450   19.8120 C   0  0  0  0  0  0  0  0  0  0  0  0
   51.8900   55.3640   21.0950 C   0  0  0  0  0  0  0  0  0  0  0  0
   50.3790   55.5640   20.9650 C   0  0  0  0  0  0  0  0  0  0  0  0
  2  1  1  0  0  0  0
  3  1  1  0  0  0  0
  3  6  2  0  0  0  0
  4  3  1  0  0  0  0
  5  4  1  0  0  0  0
  7 14  1  0  0  0  0
  7  4  1  0  0  0  0
  8  7  1  0  0  0  0
  9 10  1  0  0  0  0
  9  8  1  0  0  0  0
 10 13  1  0  0  0  0
 11 10  1  0  0  0  0
 12 10  1  0  0  0  0
 13 14  1  0  0  0  0
 16  1  1  6  0  0  0
 16 20  1  0  0  0  0
 16 15  1  0  0  0  0
 17 16  1  0  0  0  0
 17 18  1  0  0  0  0
 19 17  2  0  0  0  0
 20 22  1  0  0  0  0
 20 21  1  0  0  0  0
 22 21  1  0  0  0  0
M  END
>  <MODEL>
6

>  <REMARK>
  Name = ZINC48842024
                            x       y       z     vdW  Elec       q    Type
                         _______ _______ _______ _____ _____    ______ ____

>  <TORSDO>
F 4

>  <minimizedAffinity>
-6.5066285879206562

$$$$
ZINC48842024
 OpenBabel10211213133D

 22 23  0  0  1  0  0  0  0  0999 V2000
   50.1560   53.5250   18.5040 N   0  0  0  0  0  0  0  0  0  0  0  0
   49.5020   54.0830   18.0540 H   0  0  0  0  0  0  0  0  0  0  0  0
   50.1890   52.1990   18.2630 C   0  0  0  0  0  0  0  0  0  0  0  0
   49.3130   51.6480   17.4000 N   0  0  0  0  0  0  0  0  0  0  0  0
   48.3250   52.4910   16.7210 C   0  0  0  0  0  0  0  0  0  0  0  0
   51.0090   51.5000   18.8260 O   0  0  0  0  0  0  0  0  0  0  0  0
   49.3480   50.2070   17.1400 C   0  0  0  0  0  0  0  0  0  0  0  0
   49.0770   49.9480   15.6550 C   0  0  0  0  0  0  0  0  0  0  0  0
   49.0360   48.4390   15.4050 C   0  0  0  0  0  0  0  0  0  0  0  0
   47.9700   47.8340   16.2120 N   0  0  0  0  0  0  0  0  0  0  0  0
   47.9100   46.8490   16.0050 H   0  0  0  0  0  0  0  0  0  0  0  0
   47.0890   48.2760   15.9890 H   0  0  0  0  0  0  0  0  0  0  0  0
   48.2600   48.0160   17.6390 C   0  0  0  0  0  0  0  0  0  0  0  0
   48.2710   49.5090   17.9740 C   0  0  0  0  0  0  0  0  0  0  0  0
   52.5130   53.5870   19.1530 C   0  0  0  0  0  0  0  0  0  0  0  0
   51.1090   54.1230   19.4420 C   0  0  1  0  0  0  0  0  0  0  0  0
   51.1000   55.6210   19.2810 C   0  0  0  0  0  0  0  0  0  0  0  0
   52.1480   56.2230   19.1160 O   0  0  0  0  0  0  0  0  0  0  0  0
   50.0450   56.2320   19.3140 O   0  0  0  0  0  0  0  0  0  0  0  0
   50.7090   53.7620   20.8740 C   0  0  0  0  0  0  0  0  0  0  0  0
   51.4480   54.4670   22.0120 C   0  0  0  0  0  0  0  0  0  0  0  0
   51.7260   52.9920   21.7180 C   0  0  0  0  0  0  0  0  0  0  0  0
  2  1  1  0  0  0  0
  3  1  1  0  0  0  0
  3  6  2  0  0  0  0
  4  3  1  0  0  0  0
  5  4  1  0  0  0  0
  7  4  1  0  0  0  0
  7 14  1  0  0  0  0
  8  7  1  0  0  0  0
  9  8  1  0  0  0  0
  9 10  1  0  0  0  0
 10 13  1  0  0  0  0
 11 10  1  0  0  0  0
 12 10  1  0  0  0  0
 13 14  1  0  0  0  0
 15 16  1  0  0  0  0
 16  1  1  6  0  0  0
 16 20  1  0  0  0  0
 17 19  1  0  0  0  0
 17 16  1  0  0  0  0
 18 17  2  0  0  0  0
 20 22  1  0  0  0  0
 20 21  1  0  0  0  0
 22 21  1  0  0  0  0
M  END
>  <MODEL>
7

>  <REMARK>
  Name = ZINC48842024
                            x       y       z     vdW  Elec       q    Type
                         _______ _______ _______ _____ _____    ______ ____

>  <TORSDO>
F 4

>  <minimizedAffinity>
-6.4164634899074384

$$$$
ZINC48842024
 OpenBabel10211213133D

 22 23  0  0  1  0  0  0  0  0999 V2000
   50.5010   51.1140   19.2530 N   0  0  0  0  0  0  0  0  0  0  0  0
   50.5830   50.4280   19.9330 H   0  0  0  0  0  0  0  0  0  0  0  0
   49.6160   50.9630   18.2470 C   0  0  0  0  0  0  0  0  0  0  0  0
   48.8480   49.8570   18.1860 N   0  0  0  0  0  0  0  0  0  0  0  0
   48.9740   48.8190   19.2130 C   0  0  0  0  0  0  0  0  0  0  0  0
   49.5120   51.8230   17.3950 O   0  0  0  0  0  0  0  0  0  0  0  0
   47.8870   49.6910   17.0920 C   0  0  0  0  0  0  0  0  0  0  0  0
   46.5650   49.1570   17.6490 C   0  0  0  0  0  0  0  0  0  0  0  0
   45.5930   48.9120   16.4930 C   0  0  0  0  0  0  0  0  0  0  0  0
   46.1680   47.9290   15.5660 N   0  0  0  0  0  0  0  0  0  0  0  0
   45.5030   47.7300   14.8340 H   0  0  0  0  0  0  0  0  0  0  0  0
   46.3790   47.0780   16.0670 H   0  0  0  0  0  0  0  0  0  0  0  0
   47.3990   48.4650   14.9740 C   0  0  0  0  0  0  0  0  0  0  0  0
   48.4400   48.6930   16.0720 C   0  0  0  0  0  0  0  0  0  0  0  0
   51.8820   52.4790   20.7390 C   0  0  0  0  0  0  0  0  0  0  0  0
   51.3350   52.3160   19.3190 C   0  0  1  0  0  0  0  0  0  0  0  0
   52.4830   52.1860   18.3510 C   0  0  0  0  0  0  0  0  0  0  0  0
   53.1310   53.1710   18.0380 O   0  0  0  0  0  0  0  0  0  0  0  0
   52.7630   51.0970   17.8810 O   0  0  0  0  0  0  0  0  0  0  0  0
   50.4950   53.5420   18.9520 C   0  0  0  0  0  0  0  0  0  0  0  0
   50.9020   54.8850   19.5580 C   0  0  0  0  0  0  0  0  0  0  0  0
   49.6440   54.1710   20.0560 C   0  0  0  0  0  0  0  0  0  0  0  0
  1 16  1  0  0  0  0
  1  2  1  0  0  0  0
  3  1  1  0  0  0  0
  4  3  1  0  0  0  0
  4  5  1  0  0  0  0
  6  3  2  0  0  0  0
  7  8  1  0  0  0  0
  7  4  1  0  0  0  0
  9  8  1  0  0  0  0
 10 12  1  0  0  0  0
 10  9  1  0  0  0  0
 11 10  1  0  0  0  0
 13 10  1  0  0  0  0
 13 14  1  0  0  0  0
 14  7  1  0  0  0  0
 16 17  1  6  0  0  0
 16 15  1  0  0  0  0
 18 17  1  0  0  0  0
 19 17  2  0  0  0  0
 20 16  1  0  0  0  0
 20 21  1  0  0  0  0
 20 22  1  0  0  0  0
 21 22  1  0  0  0  0
M  END
>  <MODEL>
8

>  <REMARK>
  Name = ZINC48842024
                            x       y       z     vdW  Elec       q    Type
                         _______ _______ _______ _____ _____    ______ ____

>  <TORSDO>
F 4

>  <minimizedAffinity>
-6.3828297340679478

$$$$
ZINC48842024
 OpenBabel10211213133D

 22 23  0  0  1  0  0  0  0  0999 V2000
   50.8890   51.5090   19.9990 N   0  0  0  0  0  0  0  0  0  0  0  0
   50.6630   51.1190   20.8580 H   0  0  0  0  0  0  0  0  0  0  0  0
   51.0580   52.8420   19.8880 C   0  0  0  0  0  0  0  0  0  0  0  0
   50.9110   53.6320   20.9700 N   0  0  0  0  0  0  0  0  0  0  0  0
   50.5690   53.0430   22.2670 C   0  0  0  0  0  0  0  0  0  0  0  0
   51.3420   53.3310   18.8120 O   0  0  0  0  0  0  0  0  0  0  0  0
   51.0940   55.0810   20.8490 C   0  0  0  0  0  0  0  0  0  0  0  0
   51.8200   55.6100   22.0890 C   0  0  0  0  0  0  0  0  0  0  0  0
   51.9370   57.1330   21.9930 C   0  0  0  0  0  0  0  0  0  0  0  0
   50.5970   57.7270   21.9190 N   0  0  0  0  0  0  0  0  0  0  0  0
   50.6760   58.7320   21.9100 H   0  0  0  0  0  0  0  0  0  0  0  0
   50.0580   57.4410   22.7230 H   0  0  0  0  0  0  0  0  0  0  0  0
   49.9220   57.2790   20.6950 C   0  0  0  0  0  0  0  0  0  0  0  0
   49.7270   55.7620   20.7410 C   0  0  0  0  0  0  0  0  0  0  0  0
   50.2650   51.2430   17.6500 C   0  0  0  0  0  0  0  0  0  0  0  0
   51.0480   50.6500   18.8230 C   0  0  1  0  0  0  0  0  0  0  0  0
   52.5080   50.5620   18.4590 C   0  0  0  0  0  0  0  0  0  0  0  0
   52.8830   50.9120   17.3530 O   0  0  0  0  0  0  0  0  0  0  0  0
   53.3140   50.1410   19.2720 O   0  0  0  0  0  0  0  0  0  0  0  0
   50.5160   49.2510   19.1380 C   0  0  0  0  0  0  0  0  0  0  0  0
   49.0050   49.0930   19.3130 C   0  0  0  0  0  0  0  0  0  0  0  0
   49.9270   49.0150   20.5300 C   0  0  0  0  0  0  0  0  0  0  0  0
  1  2  1  0  0  0  0
  3  1  1  0  0  0  0
  3  4  1  0  0  0  0
  4  5  1  0  0  0  0
  6  3  2  0  0  0  0
  7  4  1  0  0  0  0
  7  8  1  0  0  0  0
  9  8  1  0  0  0  0
 10  9  1  0  0  0  0
 10 12  1  0  0  0  0
 11 10  1  0  0  0  0
 13 14  1  0  0  0  0
 13 10  1  0  0  0  0
 14  7  1  0  0  0  0
 16 15  1  6  0  0  0
 16 20  1  0  0  0  0
 16  1  1  0  0  0  0
 17 16  1  0  0  0  0
 17 19  1  0  0  0  0
 18 17  2  0  0  0  0
 20 21  1  0  0  0  0
 20 22  1  0  0  0  0
 21 22  1  0  0  0  0
M  END
>  <MODEL>
9

>  <REMARK>
  Name = ZINC48842024
                            x       y       z     vdW  Elec       q    Type
                         _______ _______ _______ _____ _____    ______ ____

>  <TORSDO>
F 4

>  <minimizedAffinity>
-6.3777827323530429

$$$$
ZINC40364814
 OpenBabel10211213143D

 22 22  0  0  0  0  0  0  0  0999 V2000
   49.7560   52.6740   17.6400 N   0  0  0  0  0  0  0  0  0  0  0  0
   49.3260   53.2220   16.9650 H   0  0  0  0  0  0  0  0  0  0  0  0
   50.7110   53.3790   18.7950 S   0  0  0  0  0  0  0  0  0  0  0  0
   52.0560   53.2090   18.3680 O   0  0  0  0  0  0  0  0  0  0  0  0
   50.2440   52.9070   20.0510 O   0  0  0  0  0  0  0  0  0  0  0  0
   50.4050   55.0060   18.7570 N   0  0  0  0  0  0  0  0  0  0  0  0
   51.4470   55.9170   19.1770 C   0  0  0  0  0  0  0  0  0  0  0  0
   51.3330   56.1680   20.7020 C   0  0  0  0  0  0  0  0  0  0  0  0
   50.1510   56.9930   20.9960 C   0  0  0  0  0  0  0  0  0  0  0  0
   48.8220   56.3430   20.6210 C   0  0  0  0  0  0  0  0  0  0  0  0
   48.5300   56.6110   19.1650 C   0  0  0  0  0  0  0  0  0  0  0  0
   49.0830   55.4670   18.2890 C   0  0  0  0  0  0  0  0  0  0  0  0
   49.5620   51.2220   17.6370 C   0  0  0  0  0  0  0  0  0  0  0  0
   47.3210   52.2050   17.1330 C   0  0  0  0  0  0  0  0  0  0  0  0
   48.0840   50.9060   17.3970 C   0  0  0  0  0  0  0  0  0  0  0  0
   50.3920   50.6060   16.5410 C   0  0  0  0  0  0  0  0  0  0  0  0
   49.6770   49.9260   15.2830 S   0  0  0  0  0  0  0  0  0  0  0  0
   51.7370   50.6280   16.6200 N   0  0  0  0  0  0  0  0  0  0  0  0
   52.2720   50.5870   15.8120 H   0  0  0  0  0  0  0  0  0  0  0  0
   52.1710   50.6840   17.4860 H   0  0  0  0  0  0  0  0  0  0  0  0
   49.9930   50.6470   18.9880 C   0  0  0  0  0  0  0  0  0  0  0  0
   49.4390   49.2290   19.1390 C   0  0  0  0  0  0  0  0  0  0  0  0
  1  3  1  0  0  0  0
  2  1  1  0  0  0  0
  3  5  2  0  0  0  0
  4  3  2  0  0  0  0
  6  3  1  0  0  0  0
  6  7  1  0  0  0  0
  7  8  1  0  0  0  0
  8  9  1  0  0  0  0
 10  9  1  0  0  0  0
 11 10  1  0  0  0  0
 12  6  1  0  0  0  0
 12 11  1  0  0  0  0
 13  1  1  0  0  0  0
 13 21  1  0  0  0  0
 14 15  1  0  0  0  0
 15 13  1  0  0  0  0
 16 18  1  0  0  0  0
 16 13  1  0  0  0  0
 17 16  2  0  0  0  0
 18 20  1  0  0  0  0
 19 18  1  0  0  0  0
 21 22  1  0  0  0  0
M  END
>  <MODEL>
1

>  <REMARK>
  Name = ZINC40364814
                            x       y       z     vdW  Elec       q    Type
                         _______ _______ _______ _____ _____    ______ ____

>  <TORSDO>
F 7

>  <minimizedAffinity>
-6.469571681419592

$$$$
ZINC40364814
 OpenBabel10211213143D

 22 22  0  0  0  0  0  0  0  0999 V2000
   50.2560   52.4560   17.6430 N   0  0  0  0  0  0  0  0  0  0  0  0
   50.0220   53.2370   17.1170 H   0  0  0  0  0  0  0  0  0  0  0  0
   51.4910   52.5370   18.7430 S   0  0  0  0  0  0  0  0  0  0  0  0
   52.3700   53.5580   18.2910 O   0  0  0  0  0  0  0  0  0  0  0  0
   51.9240   51.2030   18.9670 O   0  0  0  0  0  0  0  0  0  0  0  0
   50.8420   53.0700   20.1700 N   0  0  0  0  0  0  0  0  0  0  0  0
   49.5880   53.7900   20.1350 C   0  0  0  0  0  0  0  0  0  0  0  0
   49.8640   55.3050   19.9650 C   0  0  0  0  0  0  0  0  0  0  0  0
   50.4340   55.8620   21.2020 C   0  0  0  0  0  0  0  0  0  0  0  0
   51.7870   55.2740   21.5910 C   0  0  0  0  0  0  0  0  0  0  0  0
   51.5710   54.0020   22.3750 C   0  0  0  0  0  0  0  0  0  0  0  0
   51.5630   52.7850   21.4260 C   0  0  0  0  0  0  0  0  0  0  0  0
   49.5160   51.2040   17.4640 C   0  0  0  0  0  0  0  0  0  0  0  0
   47.8610   52.9970   16.9270 C   0  0  0  0  0  0  0  0  0  0  0  0
   48.0310   51.5140   17.2610 C   0  0  0  0  0  0  0  0  0  0  0  0
   50.0470   50.4750   16.2570 C   0  0  0  0  0  0  0  0  0  0  0  0
   49.0380   49.9460   15.1350 S   0  0  0  0  0  0  0  0  0  0  0  0
   51.3720   50.2680   16.1230 N   0  0  0  0  0  0  0  0  0  0  0  0
   51.8700   49.8340   16.8330 H   0  0  0  0  0  0  0  0  0  0  0  0
   51.8280   50.5530   15.3160 H   0  0  0  0  0  0  0  0  0  0  0  0
   49.6890   50.3280   18.7060 C   0  0  0  0  0  0  0  0  0  0  0  0
   48.6370   49.2170   18.6980 C   0  0  0  0  0  0  0  0  0  0  0  0
  1  3  1  0  0  0  0
  2  1  1  0  0  0  0
  3  5  2  0  0  0  0
  3  6  1  0  0  0  0
  4  3  2  0  0  0  0
  6 12  1  0  0  0  0
  7  6  1  0  0  0  0
  8  7  1  0  0  0  0
  8  9  1  0  0  0  0
  9 10  1  0  0  0  0
 10 11  1  0  0  0  0
 12 11  1  0  0  0  0
 13  1  1  0  0  0  0
 13 21  1  0  0  0  0
 14 15  1  0  0  0  0
 15 13  1  0  0  0  0
 16 13  1  0  0  0  0
 17 16  2  0  0  0  0
 18 16  1  0  0  0  0
 18 19  1  0  0  0  0
 20 18  1  0  0  0  0
 22 21  1  0  0  0  0
M  END
>  <MODEL>
2

>  <REMARK>
  Name = ZINC40364814
                            x       y       z     vdW  Elec       q    Type
                         _______ _______ _______ _____ _____    ______ ____

>  <TORSDO>
F 7

>  <minimizedAffinity>
-6.3832280145586955

$$$$
ZINC40364814
 OpenBabel10211213143D

 22 22  0  0  0  0  0  0  0  0999 V2000
   49.8060   50.7360   18.5990 N   0  0  0  0  0  0  0  0  0  0  0  0
   49.9220   49.9630   19.1720 H   0  0  0  0  0  0  0  0  0  0  0  0
   48.7870   50.6580   17.2950 S   0  0  0  0  0  0  0  0  0  0  0  0
   49.6120   50.6240   16.1380 O   0  0  0  0  0  0  0  0  0  0  0  0
   47.7940   51.6540   17.4950 O   0  0  0  0  0  0  0  0  0  0  0  0
   48.0130   49.1960   17.3670 N   0  0  0  0  0  0  0  0  0  0  0  0
   47.9070   48.4070   16.1590 C   0  0  0  0  0  0  0  0  0  0  0  0
   46.6140   48.7910   15.3990 C   0  0  0  0  0  0  0  0  0  0  0  0
   45.4310   48.2960   16.1200 C   0  0  0  0  0  0  0  0  0  0  0  0
   45.2450   48.8980   17.5100 C   0  0  0  0  0  0  0  0  0  0  0  0
   46.0640   48.1150   18.5060 C   0  0  0  0  0  0  0  0  0  0  0  0
   47.4640   48.7480   18.6620 C   0  0  0  0  0  0  0  0  0  0  0  0
   50.5310   51.9760   18.8860 C   0  0  0  0  0  0  0  0  0  0  0  0
   51.0510   50.8280   21.0440 C   0  0  0  0  0  0  0  0  0  0  0  0
   50.6500   52.1570   20.4010 C   0  0  0  0  0  0  0  0  0  0  0  0
   51.9080   51.9040   18.2800 C   0  0  0  0  0  0  0  0  0  0  0  0
   52.9870   53.0390   18.6060 S   0  0  0  0  0  0  0  0  0  0  0  0
   52.2320   50.8830   17.4610 N   0  0  0  0  0  0  0  0  0  0  0  0
   52.9880   50.9650   16.8600 H   0  0  0  0  0  0  0  0  0  0  0  0
   51.7090   50.0670   17.4740 H   0  0  0  0  0  0  0  0  0  0  0  0
   49.7720   53.1620   18.2890 C   0  0  0  0  0  0  0  0  0  0  0  0
   49.4020   54.1440   19.4020 C   0  0  0  0  0  0  0  0  0  0  0  0
  1 13  1  0  0  0  0
  1  2  1  0  0  0  0
  3  6  1  0  0  0  0
  3  5  2  0  0  0  0
  3  1  1  0  0  0  0
  4  3  2  0  0  0  0
  6 12  1  0  0  0  0
  7  6  1  0  0  0  0
  8  9  1  0  0  0  0
  8  7  1  0  0  0  0
  9 10  1  0  0  0  0
 10 11  1  0  0  0  0
 11 12  1  0  0  0  0
 13 15  1  0  0  0  0
 15 14  1  0  0  0  0
 16 17  2  0  0  0  0
 16 13  1  0  0  0  0
 18 20  1  0  0  0  0
 18 16  1  0  0  0  0
 19 18  1  0  0  0  0
 21 13  1  0  0  0  0
 21 22  1  0  0  0  0
M  END
>  <MODEL>
3

>  <REMARK>
  Name = ZINC40364814
                            x       y       z     vdW  Elec       q    Type
                         _______ _______ _______ _____ _____    ______ ____

>  <TORSDO>
F 7

>  <minimizedAffinity>
-6.3459551345963368

$$$$
ZINC40364814
 OpenBabel10211213143D

 22 22  0  0  0  0  0  0  0  0999 V2000
   49.9900   50.9390   19.4070 N   0  0  0  0  0  0  0  0  0  0  0  0
   49.4730   50.4650   20.0770 H   0  0  0  0  0  0  0  0  0  0  0  0
   49.5850   50.8160   17.8060 S   0  0  0  0  0  0  0  0  0  0  0  0
   50.8000   50.6180   17.0950 O   0  0  0  0  0  0  0  0  0  0  0  0
   48.7050   51.8950   17.5250 O   0  0  0  0  0  0  0  0  0  0  0  0
   48.7030   49.4260   17.6290 N   0  0  0  0  0  0  0  0  0  0  0  0
   48.6910   48.7710   16.3400 C   0  0  0  0  0  0  0  0  0  0  0  0
   47.5340   49.3380   15.4800 C   0  0  0  0  0  0  0  0  0  0  0  0
   46.2380   48.8780   16.0010 C   0  0  0  0  0  0  0  0  0  0  0  0
   45.9240   49.3550   17.4160 C   0  0  0  0  0  0  0  0  0  0  0  0
   46.5530   48.4120   18.4110 C   0  0  0  0  0  0  0  0  0  0  0  0
   47.9650   48.9030   18.7960 C   0  0  0  0  0  0  0  0  0  0  0  0
   51.1300   51.7650   19.8120 C   0  0  0  0  0  0  0  0  0  0  0  0
   49.7680   53.8450   20.0570 C   0  0  0  0  0  0  0  0  0  0  0  0
   50.6570   52.8410   20.7920 C   0  0  0  0  0  0  0  0  0  0  0  0
   52.1660   50.8990   20.4790 C   0  0  0  0  0  0  0  0  0  0  0  0
   52.8280   49.6830   19.6790 S   0  0  0  0  0  0  0  0  0  0  0  0
   52.5360   51.1480   21.7510 N   0  0  0  0  0  0  0  0  0  0  0  0
   53.3260   51.6820   21.9310 H   0  0  0  0  0  0  0  0  0  0  0  0
   52.0130   50.7940   22.4870 H   0  0  0  0  0  0  0  0  0  0  0  0
   51.7410   52.4320   18.5780 C   0  0  0  0  0  0  0  0  0  0  0  0
   52.9400   53.2830   18.9990 C   0  0  0  0  0  0  0  0  0  0  0  0
  1 13  1  0  0  0  0
  1  2  1  0  0  0  0
  3  1  1  0  0  0  0
  4  3  2  0  0  0  0
  5  3  2  0  0  0  0
  6  3  1  0  0  0  0
  6 12  1  0  0  0  0
  7  6  1  0  0  0  0
  8  9  1  0  0  0  0
  8  7  1  0  0  0  0
  9 10  1  0  0  0  0
 10 11  1  0  0  0  0
 11 12  1  0  0  0  0
 13 16  1  0  0  0  0
 13 15  1  0  0  0  0
 14 15  1  0  0  0  0
 16 18  1  0  0  0  0
 17 16  2  0  0  0  0
 18 19  1  0  0  0  0
 18 20  1  0  0  0  0
 21 22  1  0  0  0  0
 21 13  1  0  0  0  0
M  END
>  <MODEL>
4

>  <REMARK>
  Name = ZINC40364814
                            x       y       z     vdW  Elec       q    Type
                         _______ _______ _______ _____ _____    ______ ____

>  <TORSDO>
F 7

>  <minimizedAffinity>
-6.265647504764579

$$$$
ZINC40364814
 OpenBabel10211213143D

 22 22  0  0  0  0  0  0  0  0999 V2000
   48.8470   50.9000   17.9150 N   0  0  0  0  0  0  0  0  0  0  0  0
   49.4960   51.0210   18.6260 H   0  0  0  0  0  0  0  0  0  0  0  0
   48.2520   52.2140   17.1010 S   0  0  0  0  0  0  0  0  0  0  0  0
   46.9170   52.3980   17.5510 O   0  0  0  0  0  0  0  0  0  0  0  0
   48.5750   52.0240   15.7310 O   0  0  0  0  0  0  0  0  0  0  0  0
   49.1090   53.5350   17.6110 N   0  0  0  0  0  0  0  0  0  0  0  0
   50.3510   53.3240   18.3230 C   0  0  0  0  0  0  0  0  0  0  0  0
   50.0650   53.2150   19.8420 C   0  0  0  0  0  0  0  0  0  0  0  0
   49.6890   54.5290   20.3860 C   0  0  0  0  0  0  0  0  0  0  0  0
   48.4040   55.1070   19.8020 C   0  0  0  0  0  0  0  0  0  0  0  0
   48.7220   55.8340   18.5190 C   0  0  0  0  0  0  0  0  0  0  0  0
   48.5790   54.8810   17.3140 C   0  0  0  0  0  0  0  0  0  0  0  0
   48.3940   49.5530   17.5600 C   0  0  0  0  0  0  0  0  0  0  0  0
   46.4440   48.3860   18.6000 C   0  0  0  0  0  0  0  0  0  0  0  0
   46.8660   49.4940   17.6330 C   0  0  0  0  0  0  0  0  0  0  0  0
   48.8420   49.2230   16.1610 C   0  0  0  0  0  0  0  0  0  0  0  0
   47.7970   48.6360   15.1030 S   0  0  0  0  0  0  0  0  0  0  0  0
   50.1250   49.4230   15.7990 N   0  0  0  0  0  0  0  0  0  0  0  0
   50.5840   48.7660   15.2530 H   0  0  0  0  0  0  0  0  0  0  0  0
   50.5910   50.2250   16.0850 H   0  0  0  0  0  0  0  0  0  0  0  0
   48.9900   48.5390   18.5390 C   0  0  0  0  0  0  0  0  0  0  0  0
   49.9590   49.2510   19.4840 C   0  0  0  0  0  0  0  0  0  0  0  0
  1  2  1  0  0  0  0
  3  4  2  0  0  0  0
  3  6  1  0  0  0  0
  3  1  1  0  0  0  0
  5  3  2  0  0  0  0
  6  7  1  0  0  0  0
  7  8  1  0  0  0  0
  8  9  1  0  0  0  0
 10  9  1  0  0  0  0
 11 10  1  0  0  0  0
 12  6  1  0  0  0  0
 12 11  1  0  0  0  0
 13 15  1  0  0  0  0
 13  1  1  0  0  0  0
 13 21  1  0  0  0  0
 15 14  1  0  0  0  0
 16 13  1  0  0  0  0
 17 16  2  0  0  0  0
 18 20  1  0  0  0  0
 18 16  1  0  0  0  0
 19 18  1  0  0  0  0
 21 22  1  0  0  0  0
M  END
>  <MODEL>
5

>  <REMARK>
  Name = ZINC40364814
                            x       y       z     vdW  Elec       q    Type
                         _______ _______ _______ _____ _____    ______ ____

>  <TORSDO>
F 7

>  <minimizedAffinity>
-6.0186204671615018

$$$$
ZINC40364814
 OpenBabel10211213143D

 22 22  0  0  0  0  0  0  0  0999 V2000
   49.8550   51.0920   18.6410 N   0  0  0  0  0  0  0  0  0  0  0  0
   49.4220   51.6850   19.2760 H   0  0  0  0  0  0  0  0  0  0  0  0
   51.4780   50.7870   18.7660 S   0  0  0  0  0  0  0  0  0  0  0  0
   52.0150   50.9060   17.4560 O   0  0  0  0  0  0  0  0  0  0  0  0
   51.6100   49.6020   19.5390 O   0  0  0  0  0  0  0  0  0  0  0  0
   52.1400   52.0120   19.6610 N   0  0  0  0  0  0  0  0  0  0  0  0
   52.1590   51.8870   21.1020 C   0  0  0  0  0  0  0  0  0  0  0  0
   50.8530   52.4760   21.6910 C   0  0  0  0  0  0  0  0  0  0  0  0
   50.8550   53.9430   21.5720 C   0  0  0  0  0  0  0  0  0  0  0  0
   50.8850   54.4560   20.1350 C   0  0  0  0  0  0  0  0  0  0  0  0
   52.3150   54.5080   19.6550 C   0  0  0  0  0  0  0  0  0  0  0  0
   52.6930   53.1850   18.9560 C   0  0  0  0  0  0  0  0  0  0  0  0
   49.0730   50.4670   17.5720 C   0  0  0  0  0  0  0  0  0  0  0  0
   49.0670   49.9610   15.1250 C   0  0  0  0  0  0  0  0  0  0  0  0
   49.9480   50.3090   16.3260 C   0  0  0  0  0  0  0  0  0  0  0  0
   48.5960   49.1120   18.0250 C   0  0  0  0  0  0  0  0  0  0  0  0
   47.0380   48.8540   18.2750 S   0  0  0  0  0  0  0  0  0  0  0  0
   49.4830   48.1150   18.2200 N   0  0  0  0  0  0  0  0  0  0  0  0
   49.4770   47.3400   17.6380 H   0  0  0  0  0  0  0  0  0  0  0  0
   50.1270   48.1730   18.9430 H   0  0  0  0  0  0  0  0  0  0  0  0
   47.8670   51.3480   17.2400 C   0  0  0  0  0  0  0  0  0  0  0  0
   48.2420   52.8190   17.4270 C   0  0  0  0  0  0  0  0  0  0  0  0
  1  3  1  0  0  0  0
  1  2  1  0  0  0  0
  3  5  2  0  0  0  0
  3  6  1  0  0  0  0
  4  3  2  0  0  0  0
  6  7  1  0  0  0  0
  7  8  1  0  0  0  0
  9  8  1  0  0  0  0
 10  9  1  0  0  0  0
 11 10  1  0  0  0  0
 12 11  1  0  0  0  0
 12  6  1  0  0  0  0
 13 16  1  0  0  0  0
 13  1  1  0  0  0  0
 14 15  1  0  0  0  0
 15 13  1  0  0  0  0
 16 18  1  0  0  0  0
 16 17  2  0  0  0  0
 18 20  1  0  0  0  0
 19 18  1  0  0  0  0
 21 22  1  0  0  0  0
 21 13  1  0  0  0  0
M  END
>  <MODEL>
6

>  <REMARK>
  Name = ZINC40364814
                            x       y       z     vdW  Elec       q    Type
                         _______ _______ _______ _____ _____    ______ ____

>  <TORSDO>
F 7

>  <minimizedAffinity>
-5.8619549796977966

$$$$
ZINC40364814
 OpenBabel10211213143D

 22 22  0  0  0  0  0  0  0  0999 V2000
   50.3070   51.4950   19.4210 N   0  0  0  0  0  0  0  0  0  0  0  0
   49.6970   51.4420   20.1730 H   0  0  0  0  0  0  0  0  0  0  0  0
   49.7260   51.3990   17.8730 S   0  0  0  0  0  0  0  0  0  0  0  0
   50.7200   50.7300   17.1090 O   0  0  0  0  0  0  0  0  0  0  0  0
   49.2490   52.6940   17.5370 O   0  0  0  0  0  0  0  0  0  0  0  0
   48.4050   50.4010   17.9070 N   0  0  0  0  0  0  0  0  0  0  0  0
   48.4450   49.2250   18.7480 C   0  0  0  0  0  0  0  0  0  0  0  0
   49.0320   48.0350   17.9490 C   0  0  0  0  0  0  0  0  0  0  0  0
   48.0700   47.5790   16.9330 C   0  0  0  0  0  0  0  0  0  0  0  0
   47.7380   48.6210   15.8690 C   0  0  0  0  0  0  0  0  0  0  0  0
   46.6350   49.5170   16.3760 C   0  0  0  0  0  0  0  0  0  0  0  0
   47.2320   50.7520   17.0820 C   0  0  0  0  0  0  0  0  0  0  0  0
   51.7430   51.6610   19.6540 C   0  0  0  0  0  0  0  0  0  0  0  0
   51.9010   49.2080   20.1040 C   0  0  0  0  0  0  0  0  0  0  0  0
   52.4720   50.3670   19.2850 C   0  0  0  0  0  0  0  0  0  0  0  0
   52.2640   52.7910   18.8050 C   0  0  0  0  0  0  0  0  0  0  0  0
   51.9740   54.3070   19.2240 S   0  0  0  0  0  0  0  0  0  0  0  0
   52.9740   52.5240   17.6900 N   0  0  0  0  0  0  0  0  0  0  0  0
   52.8340   51.6920   17.2130 H   0  0  0  0  0  0  0  0  0  0  0  0
   53.6250   53.1660   17.3650 H   0  0  0  0  0  0  0  0  0  0  0  0
   51.9880   51.9790   21.1310 C   0  0  0  0  0  0  0  0  0  0  0  0
   50.6540   52.2840   21.8150 C   0  0  0  0  0  0  0  0  0  0  0  0
  1 13  1  0  0  0  0
  1  2  1  0  0  0  0
  3  6  1  0  0  0  0
  3  1  1  0  0  0  0
  4  3  2  0  0  0  0
  5  3  2  0  0  0  0
  6  7  1  0  0  0  0
  8  7  1  0  0  0  0
  9  8  1  0  0  0  0
 10 11  1  0  0  0  0
 10  9  1  0  0  0  0
 11 12  1  0  0  0  0
 12  6  1  0  0  0  0
 13 21  1  0  0  0  0
 15 13  1  0  0  0  0
 15 14  1  0  0  0  0
 16 17  2  0  0  0  0
 16 13  1  0  0  0  0
 18 16  1  0  0  0  0
 19 18  1  0  0  0  0
 20 18  1  0  0  0  0
 21 22  1  0  0  0  0
M  END
>  <MODEL>
7

>  <REMARK>
  Name = ZINC40364814
                            x       y       z     vdW  Elec       q    Type
                         _______ _______ _______ _____ _____    ______ ____

>  <TORSDO>
F 7

>  <minimizedAffinity>
-5.813948417046455

$$$$
ZINC40364814
 OpenBabel10211213143D

 22 22  0  0  0  0  0  0  0  0999 V2000
   49.9190   51.5630   19.0620 N   0  0  0  0  0  0  0  0  0  0  0  0
   49.1130   52.1010   19.1110 H   0  0  0  0  0  0  0  0  0  0  0  0
   50.0640   50.3890   17.9040 S   0  0  0  0  0  0  0  0  0  0  0  0
   49.7720   49.1530   18.5420 O   0  0  0  0  0  0  0  0  0  0  0  0
   51.2940   50.6290   17.2330 O   0  0  0  0  0  0  0  0  0  0  0  0
   48.8620   50.6430   16.7940 N   0  0  0  0  0  0  0  0  0  0  0  0
   47.5510   51.0280   17.2680 C   0  0  0  0  0  0  0  0  0  0  0  0
   46.7060   49.7580   17.5440 C   0  0  0  0  0  0  0  0  0  0  0  0
   46.3300   49.1100   16.2780 C   0  0  0  0  0  0  0  0  0  0  0  0
   47.5120   48.6050   15.4560 C   0  0  0  0  0  0  0  0  0  0  0  0
   48.0490   49.7330   14.6100 C   0  0  0  0  0  0  0  0  0  0  0  0
   49.1740   50.4750   15.3610 C   0  0  0  0  0  0  0  0  0  0  0  0
   51.0090   51.7910   20.0140 C   0  0  0  0  0  0  0  0  0  0  0  0
   51.6770   53.0760   22.0500 C   0  0  0  0  0  0  0  0  0  0  0  0
   50.4960   52.6340   21.1840 C   0  0  0  0  0  0  0  0  0  0  0  0
   51.5100   50.4680   20.5300 C   0  0  0  0  0  0  0  0  0  0  0  0
   52.9140   49.8920   20.0260 S   0  0  0  0  0  0  0  0  0  0  0  0
   50.7750   49.7690   21.4180 N   0  0  0  0  0  0  0  0  0  0  0  0
   50.9320   48.8190   21.5380 H   0  0  0  0  0  0  0  0  0  0  0  0
   50.0880   50.2150   21.9380 H   0  0  0  0  0  0  0  0  0  0  0  0
   52.1510   52.5310   19.3150 C   0  0  0  0  0  0  0  0  0  0  0  0
   51.6260   53.8440   18.7290 C   0  0  0  0  0  0  0  0  0  0  0  0
  1  2  1  0  0  0  0
  1 13  1  0  0  0  0
  3  4  2  0  0  0  0
  3  1  1  0  0  0  0
  5  3  2  0  0  0  0
  6  7  1  0  0  0  0
  6  3  1  0  0  0  0
  7  8  1  0  0  0  0
  9  8  1  0  0  0  0
 10  9  1  0  0  0  0
 11 12  1  0  0  0  0
 11 10  1  0  0  0  0
 12  6  1  0  0  0  0
 13 16  1  0  0  0  0
 13 15  1  0  0  0  0
 15 14  1  0  0  0  0
 16 18  1  0  0  0  0
 17 16  2  0  0  0  0
 18 19  1  0  0  0  0
 18 20  1  0  0  0  0
 21 13  1  0  0  0  0
 22 21  1  0  0  0  0
M  END
>  <MODEL>
8

>  <REMARK>
  Name = ZINC40364814
                            x       y       z     vdW  Elec       q    Type
                         _______ _______ _______ _____ _____    ______ ____

>  <TORSDO>
F 7

>  <minimizedAffinity>
-5.7451037201642867

$$$$
ZINC40364814
 OpenBabel10211213143D

 22 22  0  0  0  0  0  0  0  0999 V2000
   49.9650   54.8600   20.8440 N   0  0  0  0  0  0  0  0  0  0  0  0
   49.1370   54.4150   21.0840 H   0  0  0  0  0  0  0  0  0  0  0  0
   51.3520   53.9790   20.6410 S   0  0  0  0  0  0  0  0  0  0  0  0
   51.9510   53.8650   21.9240 O   0  0  0  0  0  0  0  0  0  0  0  0
   52.0330   54.5440   19.5290 O   0  0  0  0  0  0  0  0  0  0  0  0
   50.9010   52.4510   20.1920 N   0  0  0  0  0  0  0  0  0  0  0  0
   51.2100   51.3480   21.0760 C   0  0  0  0  0  0  0  0  0  0  0  0
   52.6100   50.7840   20.7310 C   0  0  0  0  0  0  0  0  0  0  0  0
   52.5690   50.0660   19.4480 C   0  0  0  0  0  0  0  0  0  0  0  0
   52.2100   50.9400   18.2500 C   0  0  0  0  0  0  0  0  0  0  0  0
   50.7090   51.0370   18.1360 C   0  0  0  0  0  0  0  0  0  0  0  0
   50.1930   52.2700   18.9090 C   0  0  0  0  0  0  0  0  0  0  0  0
   49.9880   56.3130   20.6620 C   0  0  0  0  0  0  0  0  0  0  0  0
   48.6840   58.4250   20.9500 C   0  0  0  0  0  0  0  0  0  0  0  0
   48.6470   56.9040   21.1060 C   0  0  0  0  0  0  0  0  0  0  0  0
   51.0960   56.9060   21.4920 C   0  0  0  0  0  0  0  0  0  0  0  0
   52.2300   57.7940   20.7960 S   0  0  0  0  0  0  0  0  0  0  0  0
   51.1330   56.6890   22.8220 N   0  0  0  0  0  0  0  0  0  0  0  0
   50.6630   55.9320   23.2040 H   0  0  0  0  0  0  0  0  0  0  0  0
   51.6300   57.2910   23.3980 H   0  0  0  0  0  0  0  0  0  0  0  0
   50.2250   56.6390   19.1860 C   0  0  0  0  0  0  0  0  0  0  0  0
   49.0980   56.0410   18.3430 C   0  0  0  0  0  0  0  0  0  0  0  0
  1  2  1  0  0  0  0
  3  1  1  0  0  0  0
  3  4  2  0  0  0  0
  5  3  2  0  0  0  0
  6  3  1  0  0  0  0
  6  7  1  0  0  0  0
  8  7  1  0  0  0  0
  9  8  1  0  0  0  0
 10  9  1  0  0  0  0
 11 10  1  0  0  0  0
 11 12  1  0  0  0  0
 12  6  1  0  0  0  0
 13  1  1  0  0  0  0
 13 15  1  0  0  0  0
 13 16  1  0  0  0  0
 14 15  1  0  0  0  0
 16 18  1  0  0  0  0
 17 16  2  0  0  0  0
 18 19  1  0  0  0  0
 18 20  1  0  0  0  0
 21 13  1  0  0  0  0
 22 21  1  0  0  0  0
M  END
>  <MODEL>
9

>  <REMARK>
  Name = ZINC40364814
                            x       y       z     vdW  Elec       q    Type
                         _______ _______ _______ _____ _____    ______ ____

>  <TORSDO>
F 7

>  <minimizedAffinity>
-5.7246174819453373

$$$$
ZINC62893472
 OpenBabel10211213153D

 23 24  0  0  1  0  0  0  0  0999 V2000
   51.1100   55.2280   20.1070 C   0  0  0  0  0  0  0  0  0  0  0  0
   50.4370   54.0650   20.2180 N   0  0  0  0  0  0  0  0  0  0  0  0
   49.7450   53.9680   20.8910 H   0  0  0  0  0  0  0  0  0  0  0  0
   52.0370   55.3200   19.3320 O   0  0  0  0  0  0  0  0  0  0  0  0
   50.7090   56.4140   20.9470 C   0  0  2  0  0  0  0  0  0  0  0  0
   51.4880   57.6840   20.5160 C   0  0  0  0  0  0  0  0  0  0  0  0
   52.8220   57.5070   21.2840 C   0  0  0  0  0  0  0  0  0  0  0  0
   52.4350   56.9130   22.5820 N   0  0  0  0  0  0  0  0  0  0  0  0
   52.3400   57.6410   23.2740 H   0  0  0  0  0  0  0  0  0  0  0  0
   53.1410   56.2550   22.8770 H   0  0  0  0  0  0  0  0  0  0  0  0
   51.1470   56.2170   22.4130 C   0  0  0  0  0  0  0  0  0  0  0  0
   48.8460   57.9610   21.5650 C   0  0  0  0  0  0  0  0  0  0  0  0
   49.1990   56.6490   20.8600 C   0  0  0  0  0  0  0  0  0  0  0  0
   50.7530   52.9490   19.3250 C   0  0  2  0  0  0  0  0  0  0  0  0
   49.7140   52.8680   18.2360 C   0  0  0  0  0  0  0  0  0  0  0  0
   48.8830   53.8340   17.7750 C   0  0  0  0  0  0  0  0  0  0  0  0
   48.0020   53.5300   16.7550 C   0  0  0  0  0  0  0  0  0  0  0  0
   47.9950   52.2730   16.2450 C   0  0  0  0  0  0  0  0  0  0  0  0
   49.2670   51.4750   17.2120 S   0  0  0  0  0  0  0  0  0  0  0  0
   50.7580   51.6420   20.1230 C   0  0  0  0  0  0  0  0  0  0  0  0
   51.9450   51.6250   21.0500 C   0  0  0  0  0  0  0  0  0  0  0  0
   51.9650   52.3490   22.0300 O   0  0  0  0  0  0  0  0  0  0  0  0
   52.8880   50.8870   20.8190 O   0  0  0  0  0  0  0  0  0  0  0  0
  1  2  1  0  0  0  0
  2  3  1  0  0  0  0
  4  1  2  0  0  0  0
  5  1  1  6  0  0  0
  5 11  1  0  0  0  0
  6  5  1  0  0  0  0
  6  7  1  0  0  0  0
  7  8  1  0  0  0  0
  8 10  1  0  0  0  0
  8  9  1  0  0  0  0
 11  8  1  0  0  0  0
 13  5  1  0  0  0  0
 13 12  1  0  0  0  0
 14 15  1  1  0  0  0
 14 20  1  0  0  0  0
 14  2  1  0  0  0  0
 16 15  2  0  0  0  0
 17 16  1  0  0  0  0
 18 17  2  0  0  0  0
 18 19  1  0  0  0  0
 19 15  1  0  0  0  0
 20 21  1  0  0  0  0
 21 22  1  0  0  0  0
 23 21  2  0  0  0  0
M  END
>  <MODEL>
1

>  <REMARK>
  Name = ZINC62893472
                            x       y       z     vdW  Elec       q    Type
                         _______ _______ _______ _____ _____    ______ ____

>  <TORSDO>
F 6

>  <minimizedAffinity>
-7.2686191249494234

$$$$
ZINC62893472
 OpenBabel10211213153D

 23 24  0  0  1  0  0  0  0  0999 V2000
   51.6750   53.7660   21.2100 C   0  0  0  0  0  0  0  0  0  0  0  0
   51.5930   54.9140   20.5080 N   0  0  0  0  0  0  0  0  0  0  0  0
   51.4880   54.8870   19.5440 H   0  0  0  0  0  0  0  0  0  0  0  0
   51.9000   53.8000   22.4010 O   0  0  0  0  0  0  0  0  0  0  0  0
   51.4890   52.4420   20.5140 C   0  0  2  0  0  0  0  0  0  0  0  0
   52.7920   52.0090   19.7920 C   0  0  0  0  0  0  0  0  0  0  0  0
   52.6890   52.7980   18.4630 C   0  0  0  0  0  0  0  0  0  0  0  0
   51.2510   52.7730   18.1190 N   0  0  0  0  0  0  0  0  0  0  0  0
   51.0670   52.0170   17.4770 H   0  0  0  0  0  0  0  0  0  0  0  0
   50.9880   53.6490   17.6930 H   0  0  0  0  0  0  0  0  0  0  0  0
   50.4760   52.5720   19.3570 C   0  0  0  0  0  0  0  0  0  0  0  0
   50.9700   50.0150   20.8020 C   0  0  0  0  0  0  0  0  0  0  0  0
   51.0390   51.3700   21.5090 C   0  0  0  0  0  0  0  0  0  0  0  0
   51.6630   56.2030   21.2000 C   0  0  2  0  0  0  0  0  0  0  0  0
   50.3190   56.8830   21.1330 C   0  0  0  0  0  0  0  0  0  0  0  0
   49.7970   57.8240   21.9570 C   0  0  0  0  0  0  0  0  0  0  0  0
   48.5300   58.3120   21.6990 C   0  0  0  0  0  0  0  0  0  0  0  0
   47.8470   57.8340   20.6290 C   0  0  0  0  0  0  0  0  0  0  0  0
   49.0070   56.6640   19.9430 S   0  0  0  0  0  0  0  0  0  0  0  0
   52.7160   57.0870   20.5280 C   0  0  0  0  0  0  0  0  0  0  0  0
   53.4620   57.8650   21.5800 C   0  0  0  0  0  0  0  0  0  0  0  0
   53.1430   59.0150   21.8290 O   0  0  0  0  0  0  0  0  0  0  0  0
   54.3860   57.3460   22.1830 O   0  0  0  0  0  0  0  0  0  0  0  0
  1  4  2  0  0  0  0
  2  1  1  0  0  0  0
  3  2  1  0  0  0  0
  5  1  1  1  0  0  0
  5 13  1  0  0  0  0
  6  5  1  0  0  0  0
  7  6  1  0  0  0  0
  8  7  1  0  0  0  0
  8 11  1  0  0  0  0
  9  8  1  0  0  0  0
 10  8  1  0  0  0  0
 11  5  1  0  0  0  0
 12 13  1  0  0  0  0
 14  2  1  6  0  0  0
 15 14  1  0  0  0  0
 15 16  2  0  0  0  0
 17 16  1  0  0  0  0
 18 17  2  0  0  0  0
 19 18  1  0  0  0  0
 19 15  1  0  0  0  0
 20 14  1  0  0  0  0
 20 21  1  0  0  0  0
 21 22  2  0  0  0  0
 21 23  1  0  0  0  0
M  END
>  <MODEL>
2

>  <REMARK>
  Name = ZINC62893472
                            x       y       z     vdW  Elec       q    Type
                         _______ _______ _______ _____ _____    ______ ____

>  <TORSDO>
F 6

>  <minimizedAffinity>
-7.2389965215509529

$$$$
ZINC62893472
 OpenBabel10211213153D

 23 24  0  0  1  0  0  0  0  0999 V2000
   51.9700   53.7020   20.8830 C   0  0  0  0  0  0  0  0  0  0  0  0
   52.0450   54.9100   20.2900 N   0  0  0  0  0  0  0  0  0  0  0  0
   52.1560   54.9720   19.3280 H   0  0  0  0  0  0  0  0  0  0  0  0
   51.9250   53.6220   22.0910 O   0  0  0  0  0  0  0  0  0  0  0  0
   51.9420   52.4500   20.0430 C   0  0  2  0  0  0  0  0  0  0  0  0
   50.5360   51.7940   20.0770 C   0  0  0  0  0  0  0  0  0  0  0  0
   50.6010   50.9870   21.3970 C   0  0  0  0  0  0  0  0  0  0  0  0
   51.9880   50.4790   21.4620 N   0  0  0  0  0  0  0  0  0  0  0  0
   52.0250   49.5410   21.0950 H   0  0  0  0  0  0  0  0  0  0  0  0
   52.3050   50.4810   22.4200 H   0  0  0  0  0  0  0  0  0  0  0  0
   52.8490   51.3620   20.6540 C   0  0  0  0  0  0  0  0  0  0  0  0
   52.3690   51.4650   17.7870 C   0  0  0  0  0  0  0  0  0  0  0  0
   52.3610   52.7580   18.6040 C   0  0  0  0  0  0  0  0  0  0  0  0
   51.9600   56.1280   21.0970 C   0  0  2  0  0  0  0  0  0  0  0  0
   50.5600   56.6830   21.0240 C   0  0  0  0  0  0  0  0  0  0  0  0
   49.9680   57.6110   21.8150 C   0  0  0  0  0  0  0  0  0  0  0  0
   48.6590   57.9720   21.5580 C   0  0  0  0  0  0  0  0  0  0  0  0
   48.0060   57.3890   20.5220 C   0  0  0  0  0  0  0  0  0  0  0  0
   49.2570   56.2960   19.8670 S   0  0  0  0  0  0  0  0  0  0  0  0
   52.9490   57.1660   20.5610 C   0  0  0  0  0  0  0  0  0  0  0  0
   53.5820   57.8990   21.7150 C   0  0  0  0  0  0  0  0  0  0  0  0
   53.2090   59.0240   22.0010 O   0  0  0  0  0  0  0  0  0  0  0  0
   54.4680   57.3680   22.3630 O   0  0  0  0  0  0  0  0  0  0  0  0
  1  4  2  0  0  0  0
  2  1  1  0  0  0  0
  3  2  1  0  0  0  0
  5 13  1  6  0  0  0
  5  6  1  0  0  0  0
  5 11  1  0  0  0  0
  5  1  1  0  0  0  0
  6  7  1  0  0  0  0
  7  8  1  0  0  0  0
  8 10  1  0  0  0  0
  9  8  1  0  0  0  0
 11  8  1  0  0  0  0
 12 13  1  0  0  0  0
 14  2  1  6  0  0  0
 15 14  1  0  0  0  0
 15 16  2  0  0  0  0
 17 16  1  0  0  0  0
 18 17  2  0  0  0  0
 19 18  1  0  0  0  0
 19 15  1  0  0  0  0
 20 14  1  0  0  0  0
 20 21  1  0  0  0  0
 21 22  2  0  0  0  0
 21 23  1  0  0  0  0
M  END
>  <MODEL>
3

>  <REMARK>
  Name = ZINC62893472
                            x       y       z     vdW  Elec       q    Type
                         _______ _______ _______ _____ _____    ______ ____

>  <TORSDO>
F 6

>  <minimizedAffinity>
-7.0695482043304034

$$$$
ZINC62893472
 OpenBabel10211213153D

 23 24  0  0  1  0  0  0  0  0999 V2000
   49.6080   49.9850   18.8100 C   0  0  0  0  0  0  0  0  0  0  0  0
   50.1460   51.1900   19.0840 N   0  0  0  0  0  0  0  0  0  0  0  0
   49.9010   51.9630   18.5510 H   0  0  0  0  0  0  0  0  0  0  0  0
   49.9830   49.0030   19.4140 O   0  0  0  0  0  0  0  0  0  0  0  0
   48.5410   49.8590   17.7520 C   0  0  2  0  0  0  0  0  0  0  0  0
   49.0810   49.1010   16.5110 C   0  0  0  0  0  0  0  0  0  0  0  0
   49.8030   50.2360   15.7420 C   0  0  0  0  0  0  0  0  0  0  0  0
   48.9540   51.4290   15.9450 N   0  0  0  0  0  0  0  0  0  0  0  0
   48.3280   51.5390   15.1620 H   0  0  0  0  0  0  0  0  0  0  0  0
   49.5350   52.2490   16.0310 H   0  0  0  0  0  0  0  0  0  0  0  0
   48.1720   51.2440   17.1820 C   0  0  0  0  0  0  0  0  0  0  0  0
   46.0820   49.5210   17.4710 C   0  0  0  0  0  0  0  0  0  0  0  0
   47.3030   49.1590   18.3180 C   0  0  0  0  0  0  0  0  0  0  0  0
   51.1000   51.3330   20.1860 C   0  0  2  0  0  0  0  0  0  0  0  0
   51.0250   52.7340   20.7370 C   0  0  0  0  0  0  0  0  0  0  0  0
   51.7050   53.2800   21.7750 C   0  0  0  0  0  0  0  0  0  0  0  0
   51.4740   54.6020   22.1060 C   0  0  0  0  0  0  0  0  0  0  0  0
   50.5730   55.3130   21.3830 C   0  0  0  0  0  0  0  0  0  0  0  0
   50.0250   54.1060   20.1860 S   0  0  0  0  0  0  0  0  0  0  0  0
   52.5160   51.0620   19.6730 C   0  0  0  0  0  0  0  0  0  0  0  0
   52.6680   51.6360   18.2890 C   0  0  0  0  0  0  0  0  0  0  0  0
   52.7350   50.8940   17.3240 O   0  0  0  0  0  0  0  0  0  0  0  0
   52.7240   52.8450   18.1320 O   0  0  0  0  0  0  0  0  0  0  0  0
  1  2  1  0  0  0  0
  1  4  2  0  0  0  0
  3  2  1  0  0  0  0
  5 13  1  1  0  0  0
  5  1  1  0  0  0  0
  6  5  1  0  0  0  0
  7  8  1  0  0  0  0
  7  6  1  0  0  0  0
  8 10  1  0  0  0  0
  8 11  1  0  0  0  0
  9  8  1  0  0  0  0
 11  5  1  0  0  0  0
 12 13  1  0  0  0  0
 14  2  1  6  0  0  0
 14 15  1  0  0  0  0
 15 16  2  0  0  0  0
 16 17  1  0  0  0  0
 18 17  2  0  0  0  0
 19 15  1  0  0  0  0
 19 18  1  0  0  0  0
 20 14  1  0  0  0  0
 21 20  1  0  0  0  0
 22 21  2  0  0  0  0
 23 21  1  0  0  0  0
M  END
>  <MODEL>
4

>  <REMARK>
  Name = ZINC62893472
                            x       y       z     vdW  Elec       q    Type
                         _______ _______ _______ _____ _____    ______ ____

>  <TORSDO>
F 6

>  <minimizedAffinity>
-6.909408015164991

$$$$
ZINC62893472
 OpenBabel10211213153D

 23 24  0  0  1  0  0  0  0  0999 V2000
   49.5040   50.2940   18.4820 C   0  0  0  0  0  0  0  0  0  0  0  0
   50.0300   51.5230   18.6560 N   0  0  0  0  0  0  0  0  0  0  0  0
   49.9780   52.1780   17.9420 H   0  0  0  0  0  0  0  0  0  0  0  0
   49.6500   49.4460   19.3360 O   0  0  0  0  0  0  0  0  0  0  0  0
   48.7350   49.9740   17.2260 C   0  0  2  0  0  0  0  0  0  0  0  0
   47.2230   50.2710   17.4130 C   0  0  0  0  0  0  0  0  0  0  0  0
   46.7380   48.9800   18.1190 C   0  0  0  0  0  0  0  0  0  0  0  0
   47.5140   47.8910   17.4900 N   0  0  0  0  0  0  0  0  0  0  0  0
   46.9750   47.4740   16.7460 H   0  0  0  0  0  0  0  0  0  0  0  0
   47.7360   47.1900   18.1810 H   0  0  0  0  0  0  0  0  0  0  0  0
   48.7600   48.4580   16.9420 C   0  0  0  0  0  0  0  0  0  0  0  0
   50.0120   49.7960   15.0860 C   0  0  0  0  0  0  0  0  0  0  0  0
   49.2970   50.7570   16.0370 C   0  0  0  0  0  0  0  0  0  0  0  0
   50.6800   51.8680   19.9220 C   0  0  2  0  0  0  0  0  0  0  0  0
   50.4070   53.3150   20.2480 C   0  0  0  0  0  0  0  0  0  0  0  0
   49.4300   54.1270   19.7760 C   0  0  0  0  0  0  0  0  0  0  0  0
   49.3710   55.4330   20.2220 C   0  0  0  0  0  0  0  0  0  0  0  0
   50.2930   55.8640   21.1190 C   0  0  0  0  0  0  0  0  0  0  0  0
   51.2830   54.3990   21.3640 S   0  0  0  0  0  0  0  0  0  0  0  0
   52.1900   51.6500   19.7970 C   0  0  0  0  0  0  0  0  0  0  0  0
   52.6340   52.0050   18.4020 C   0  0  0  0  0  0  0  0  0  0  0  0
   52.7830   51.1290   17.5670 O   0  0  0  0  0  0  0  0  0  0  0  0
   52.8470   53.1690   18.1060 O   0  0  0  0  0  0  0  0  0  0  0  0
  1  2  1  0  0  0  0
  1  4  2  0  0  0  0
  3  2  1  0  0  0  0
  5 13  1  6  0  0  0
  5  6  1  0  0  0  0
  5  1  1  0  0  0  0
  6  7  1  0  0  0  0
  8  7  1  0  0  0  0
  8 10  1  0  0  0  0
  9  8  1  0  0  0  0
 11  5  1  0  0  0  0
 11  8  1  0  0  0  0
 12 13  1  0  0  0  0
 14  2  1  6  0  0  0
 14 15  1  0  0  0  0
 15 19  1  0  0  0  0
 16 17  1  0  0  0  0
 16 15  2  0  0  0  0
 17 18  2  0  0  0  0
 18 19  1  0  0  0  0
 20 14  1  0  0  0  0
 21 20  1  0  0  0  0
 22 21  2  0  0  0  0
 23 21  1  0  0  0  0
M  END
>  <MODEL>
5

>  <REMARK>
  Name = ZINC62893472
                            x       y       z     vdW  Elec       q    Type
                         _______ _______ _______ _____ _____    ______ ____

>  <TORSDO>
F 6

>  <minimizedAffinity>
-6.8530247390413024

$$$$
ZINC62893472
 OpenBabel10211213153D

 23 24  0  0  1  0  0  0  0  0999 V2000
   48.8600   49.5090   18.4730 C   0  0  0  0  0  0  0  0  0  0  0  0
   49.3660   50.7170   18.1530 N   0  0  0  0  0  0  0  0  0  0  0  0
   49.0860   51.1590   17.3360 H   0  0  0  0  0  0  0  0  0  0  0  0
   49.2790   48.9140   19.4430 O   0  0  0  0  0  0  0  0  0  0  0  0
   47.7740   48.8980   17.6250 C   0  0  2  0  0  0  0  0  0  0  0  0
   48.2960   47.6400   16.8810 C   0  0  0  0  0  0  0  0  0  0  0  0
   48.9930   48.2710   15.6510 C   0  0  0  0  0  0  0  0  0  0  0  0
   48.1400   49.4190   15.2800 N   0  0  0  0  0  0  0  0  0  0  0  0
   47.4980   49.1450   14.5520 H   0  0  0  0  0  0  0  0  0  0  0  0
   48.7170   50.1800   14.9540 H   0  0  0  0  0  0  0  0  0  0  0  0
   47.3840   49.8470   16.4720 C   0  0  0  0  0  0  0  0  0  0  0  0
   45.2780   48.7990   17.6700 C   0  0  0  0  0  0  0  0  0  0  0  0
   46.5530   48.5540   18.4800 C   0  0  0  0  0  0  0  0  0  0  0  0
   50.3410   51.3600   19.0360 C   0  0  2  0  0  0  0  0  0  0  0  0
   50.1760   52.8570   18.9610 C   0  0  0  0  0  0  0  0  0  0  0  0
   49.1120   53.5780   18.5290 C   0  0  0  0  0  0  0  0  0  0  0  0
   49.1850   54.9580   18.5510 C   0  0  0  0  0  0  0  0  0  0  0  0
   50.3180   55.5490   19.0040 C   0  0  0  0  0  0  0  0  0  0  0  0
   51.3280   54.1380   19.4260 S   0  0  0  0  0  0  0  0  0  0  0  0
   51.7570   50.9810   18.5980 C   0  0  0  0  0  0  0  0  0  0  0  0
   52.4940   50.3680   19.7600 C   0  0  0  0  0  0  0  0  0  0  0  0
   52.9330   51.0790   20.6480 O   0  0  0  0  0  0  0  0  0  0  0  0
   52.6540   49.1600   19.8130 O   0  0  0  0  0  0  0  0  0  0  0  0
  1  4  2  0  0  0  0
  2  1  1  0  0  0  0
  3  2  1  0  0  0  0
  5  1  1  1  0  0  0
  5 13  1  0  0  0  0
  6  5  1  0  0  0  0
  7  6  1  0  0  0  0
  8  7  1  0  0  0  0
  8 11  1  0  0  0  0
  9  8  1  0  0  0  0
 10  8  1  0  0  0  0
 11  5  1  0  0  0  0
 12 13  1  0  0  0  0
 14  2  1  6  0  0  0
 15 14  1  0  0  0  0
 15 19  1  0  0  0  0
 16 17  1  0  0  0  0
 16 15  2  0  0  0  0
 17 18  2  0  0  0  0
 18 19  1  0  0  0  0
 20 14  1  0  0  0  0
 20 21  1  0  0  0  0
 21 23  2  0  0  0  0
 21 22  1  0  0  0  0
M  END
>  <MODEL>
6

>  <REMARK>
  Name = ZINC62893472
                            x       y       z     vdW  Elec       q    Type
                         _______ _______ _______ _____ _____    ______ ____

>  <TORSDO>
F 6

>  <minimizedAffinity>
-6.6876311504425416

$$$$
ZINC62893472
 OpenBabel10211213153D

 23 24  0  0  1  0  0  0  0  0999 V2000
   47.7190   48.0560   17.3190 C   0  0  0  0  0  0  0  0  0  0  0  0
   48.1810   49.3220   17.3640 N   0  0  0  0  0  0  0  0  0  0  0  0
   47.5600   50.0610   17.4590 H   0  0  0  0  0  0  0  0  0  0  0  0
   48.4840   47.1400   17.1070 O   0  0  0  0  0  0  0  0  0  0  0  0
   46.2520   47.7810   17.5310 C   0  0  2  0  0  0  0  0  0  0  0  0
   45.8270   46.4720   16.8150 C   0  0  0  0  0  0  0  0  0  0  0  0
   45.5910   46.9710   15.3680 C   0  0  0  0  0  0  0  0  0  0  0  0
   44.9930   48.3140   15.5230 N   0  0  0  0  0  0  0  0  0  0  0  0
   43.9880   48.2470   15.4730 H   0  0  0  0  0  0  0  0  0  0  0  0
   45.3290   48.9220   14.7910 H   0  0  0  0  0  0  0  0  0  0  0  0
   45.3890   48.8550   16.8370 C   0  0  0  0  0  0  0  0  0  0  0  0
   44.5110   47.1690   19.2150 C   0  0  0  0  0  0  0  0  0  0  0  0
   45.9290   47.7100   19.0250 C   0  0  0  0  0  0  0  0  0  0  0  0
   49.6190   49.5810   17.2690 C   0  0  2  0  0  0  0  0  0  0  0  0
   50.1330   50.0570   18.6030 C   0  0  0  0  0  0  0  0  0  0  0  0
   50.4100   49.3370   19.7180 C   0  0  0  0  0  0  0  0  0  0  0  0
   50.8790   49.9940   20.8400 C   0  0  0  0  0  0  0  0  0  0  0  0
   51.0480   51.3390   20.7930 C   0  0  0  0  0  0  0  0  0  0  0  0
   50.5440   51.7150   19.1220 S   0  0  0  0  0  0  0  0  0  0  0  0
   49.8760   50.6550   16.2100 C   0  0  0  0  0  0  0  0  0  0  0  0
   49.9170   50.0160   14.8460 C   0  0  0  0  0  0  0  0  0  0  0  0
   50.9740   49.9310   14.2450 O   0  0  0  0  0  0  0  0  0  0  0  0
   48.8940   49.5840   14.3430 O   0  0  0  0  0  0  0  0  0  0  0  0
  1  2  1  0  0  0  0
  2  3  1  0  0  0  0
  4  1  2  0  0  0  0
  5  1  1  6  0  0  0
  5 13  1  0  0  0  0
  6  5  1  0  0  0  0
  7  8  1  0  0  0  0
  7  6  1  0  0  0  0
  8 11  1  0  0  0  0
  9  8  1  0  0  0  0
 10  8  1  0  0  0  0
 11  5  1  0  0  0  0
 13 12  1  0  0  0  0
 14 20  1  1  0  0  0
 14  2  1  0  0  0  0
 14 15  1  0  0  0  0
 15 19  1  0  0  0  0
 15 16  2  0  0  0  0
 16 17  1  0  0  0  0
 18 17  2  0  0  0  0
 19 18  1  0  0  0  0
 21 20  1  0  0  0  0
 22 21  2  0  0  0  0
 23 21  1  0  0  0  0
M  END
>  <MODEL>
7

>  <REMARK>
  Name = ZINC62893472
                            x       y       z     vdW  Elec       q    Type
                         _______ _______ _______ _____ _____    ______ ____

>  <TORSDO>
F 6

>  <minimizedAffinity>
-6.5757534298530631

$$$$
ZINC62893472
 OpenBabel10211213153D

 23 24  0  0  1  0  0  0  0  0999 V2000
   47.9560   48.7400   17.7810 C   0  0  0  0  0  0  0  0  0  0  0  0
   48.1770   49.9250   17.1790 N   0  0  0  0  0  0  0  0  0  0  0  0
   47.4670   50.3550   16.6780 H   0  0  0  0  0  0  0  0  0  0  0  0
   48.8680   48.1580   18.3270 O   0  0  0  0  0  0  0  0  0  0  0  0
   46.5740   48.1380   17.7740 C   0  0  2  0  0  0  0  0  0  0  0  0
   46.5440   46.8330   16.9340 C   0  0  0  0  0  0  0  0  0  0  0  0
   46.3810   47.3900   15.4980 C   0  0  0  0  0  0  0  0  0  0  0  0
   45.4820   48.5540   15.6440 N   0  0  0  0  0  0  0  0  0  0  0  0
   44.5320   48.2760   15.4520 H   0  0  0  0  0  0  0  0  0  0  0  0
   45.7590   49.2800   14.9990 H   0  0  0  0  0  0  0  0  0  0  0  0
   45.5830   49.0550   17.0270 C   0  0  0  0  0  0  0  0  0  0  0  0
   44.7180   47.2070   19.1640 C   0  0  0  0  0  0  0  0  0  0  0  0
   46.0950   47.8730   19.2030 C   0  0  0  0  0  0  0  0  0  0  0  0
   49.4910   50.5640   17.2810 C   0  0  2  0  0  0  0  0  0  0  0  0
   49.3160   52.0240   17.6140 C   0  0  0  0  0  0  0  0  0  0  0  0
   48.4080   52.9070   17.1300 C   0  0  0  0  0  0  0  0  0  0  0  0
   48.4350   54.2110   17.5860 C   0  0  0  0  0  0  0  0  0  0  0  0
   49.3680   54.5690   18.5020 C   0  0  0  0  0  0  0  0  0  0  0  0
   50.2460   53.0350   18.7540 S   0  0  0  0  0  0  0  0  0  0  0  0
   50.2290   50.4310   15.9460 C   0  0  0  0  0  0  0  0  0  0  0  0
   49.4170   49.5770   15.0070 C   0  0  0  0  0  0  0  0  0  0  0  0
   48.5240   50.0770   14.3450 O   0  0  0  0  0  0  0  0  0  0  0  0
   49.6520   48.3840   14.9100 O   0  0  0  0  0  0  0  0  0  0  0  0
  1  4  2  0  0  0  0
  2 14  1  0  0  0  0
  2  1  1  0  0  0  0
  3  2  1  0  0  0  0
  5  1  1  1  0  0  0
  5 13  1  0  0  0  0
  6  5  1  0  0  0  0
  7  8  1  0  0  0  0
  7  6  1  0  0  0  0
  8 11  1  0  0  0  0
  9  8  1  0  0  0  0
 10  8  1  0  0  0  0
 11  5  1  0  0  0  0
 12 13  1  0  0  0  0
 14 20  1  6  0  0  0
 14 15  1  0  0  0  0
 15 19  1  0  0  0  0
 16 17  1  0  0  0  0
 16 15  2  0  0  0  0
 17 18  2  0  0  0  0
 18 19  1  0  0  0  0
 21 20  1  0  0  0  0
 22 21  2  0  0  0  0
 23 21  1  0  0  0  0
M  END
>  <MODEL>
8

>  <REMARK>
  Name = ZINC62893472
                            x       y       z     vdW  Elec       q    Type
                         _______ _______ _______ _____ _____    ______ ____

>  <TORSDO>
F 6

>  <minimizedAffinity>
-6.3152744133586864

$$$$
ZINC62893472
 OpenBabel10211213153D

 23 24  0  0  1  0  0  0  0  0999 V2000
   47.8030   49.1590   17.0200 C   0  0  0  0  0  0  0  0  0  0  0  0
   48.0650   50.2660   17.7430 N   0  0  0  0  0  0  0  0  0  0  0  0
   47.4510   50.5470   18.4400 H   0  0  0  0  0  0  0  0  0  0  0  0
   48.5190   48.8610   16.0890 O   0  0  0  0  0  0  0  0  0  0  0  0
   46.6220   48.2920   17.3710 C   0  0  2  0  0  0  0  0  0  0  0  0
   46.7140   46.9170   16.6570 C   0  0  0  0  0  0  0  0  0  0  0  0
   46.1380   47.2530   15.2590 C   0  0  0  0  0  0  0  0  0  0  0  0
   45.0490   48.2180   15.5210 N   0  0  0  0  0  0  0  0  0  0  0  0
   44.1670   47.7320   15.5710 H   0  0  0  0  0  0  0  0  0  0  0  0
   45.0170   48.9030   14.7800 H   0  0  0  0  0  0  0  0  0  0  0  0
   45.3180   48.8910   16.8050 C   0  0  0  0  0  0  0  0  0  0  0  0
   45.2550   47.3140   19.2210 C   0  0  0  0  0  0  0  0  0  0  0  0
   46.5200   48.1080   18.8870 C   0  0  0  0  0  0  0  0  0  0  0  0
   49.2740   51.0480   17.4750 C   0  0  2  0  0  0  0  0  0  0  0  0
   50.3980   50.5500   18.3460 C   0  0  0  0  0  0  0  0  0  0  0  0
   51.6990   50.9290   18.3600 C   0  0  0  0  0  0  0  0  0  0  0  0
   52.5620   50.3280   19.2580 C   0  0  0  0  0  0  0  0  0  0  0  0
   52.0810   49.3780   20.0970 C   0  0  0  0  0  0  0  0  0  0  0  0
   50.3580   49.3140   19.6330 S   0  0  0  0  0  0  0  0  0  0  0  0
   49.0070   52.5230   17.7800 C   0  0  0  0  0  0  0  0  0  0  0  0
   48.2370   53.1410   16.6420 C   0  0  0  0  0  0  0  0  0  0  0  0
   48.2350   54.3500   16.4930 O   0  0  0  0  0  0  0  0  0  0  0  0
   47.6160   52.4300   15.8690 O   0  0  0  0  0  0  0  0  0  0  0  0
  1  2  1  0  0  0  0
  2  3  1  0  0  0  0
  4  1  2  0  0  0  0
  5  1  1  6  0  0  0
  5 13  1  0  0  0  0
  6  5  1  0  0  0  0
  7  8  1  0  0  0  0
  7  6  1  0  0  0  0
  8  9  1  0  0  0  0
  8 11  1  0  0  0  0
 10  8  1  0  0  0  0
 11  5  1  0  0  0  0
 13 12  1  0  0  0  0
 14  2  1  1  0  0  0
 14 20  1  0  0  0  0
 14 15  1  0  0  0  0
 15 16  2  0  0  0  0
 15 19  1  0  0  0  0
 16 17  1  0  0  0  0
 17 18  2  0  0  0  0
 19 18  1  0  0  0  0
 21 20  1  0  0  0  0
 22 21  1  0  0  0  0
 23 21  2  0  0  0  0
M  END
>  <MODEL>
9

>  <REMARK>
  Name = ZINC62893472
                            x       y       z     vdW  Elec       q    Type
                         _______ _______ _______ _____ _____    ______ ____

>  <TORSDO>
F 6

>  <minimizedAffinity>
-6.205468511027993

$$$$
ZINC43251895
 OpenBabel10211213163D

 25 26  0  0  1  0  0  0  0  0999 V2000
   48.1440   50.1120   16.7460 C   0  0  2  0  0  0  0  0  0  0  0  0
   48.8470   50.8560   17.8000 N   0  0  0  0  0  0  0  0  0  0  0  0
   49.1820   52.2140   17.3520 C   0  0  0  0  0  0  0  0  0  0  0  0
   49.7810   53.0040   18.5170 C   0  0  0  0  0  0  0  0  0  0  0  0
   51.0370   52.2890   19.0200 C   0  0  0  0  0  0  0  0  0  0  0  0
   50.6710   50.8610   19.4360 C   0  0  1  0  0  0  0  0  0  0  0  0
   50.0460   50.1330   18.2430 C   0  0  0  0  0  0  0  0  0  0  0  0
   51.9130   50.1300   19.8780 C   0  0  0  0  0  0  0  0  0  0  0  0
   51.8930   48.7900   20.0140 N   0  0  0  0  0  0  0  0  0  0  0  0
   52.6920   48.3200   20.2990 H   0  0  0  0  0  0  0  0  0  0  0  0
   51.0790   48.2950   19.8300 H   0  0  0  0  0  0  0  0  0  0  0  0
   52.9300   50.7490   20.1090 O   0  0  0  0  0  0  0  0  0  0  0  0
   47.0030   49.3380   17.3540 C   0  0  0  0  0  0  0  0  0  0  0  0
   45.7220   49.2290   16.9260 C   0  0  0  0  0  0  0  0  0  0  0  0
   44.8370   48.4540   17.6510 C   0  0  0  0  0  0  0  0  0  0  0  0
   45.2760   47.8260   18.7700 C   0  0  0  0  0  0  0  0  0  0  0  0
   44.4010   46.8010   19.8640 Cl  0  0  0  0  0  0  0  0  0  0  0  0
   46.9910   48.3190   18.8200 S   0  0  0  0  0  0  0  0  0  0  0  0
   49.1160   49.1430   16.0710 C   0  0  1  0  0  0  0  0  0  0  0  0
   48.4980   47.8130   15.9820 N   0  0  0  0  0  0  0  0  0  0  0  0
   47.5050   47.9130   15.8360 H   0  0  0  0  0  0  0  0  0  0  0  0
   48.6630   47.3070   16.8390 H   0  0  0  0  0  0  0  0  0  0  0  0
   48.9020   47.3060   15.2090 H   0  0  0  0  0  0  0  0  0  0  0  0
   50.9640   49.7230   14.4930 C   0  0  0  0  0  0  0  0  0  0  0  0
   49.4460   49.6470   14.6650 C   0  0  0  0  0  0  0  0  0  0  0  0
  1 13  1  1  0  0  0
  1  2  1  0  0  0  0
  2  7  1  0  0  0  0
  3  2  1  0  0  0  0
  3  4  1  0  0  0  0
  4  5  1  0  0  0  0
  5  6  1  0  0  0  0
  6  8  1  6  0  0  0
  7  6  1  0  0  0  0
  8  9  1  0  0  0  0
  8 12  2  0  0  0  0
  9 10  1  0  0  0  0
 11  9  1  0  0  0  0
 13 18  1  0  0  0  0
 14 13  2  0  0  0  0
 14 15  1  0  0  0  0
 15 16  2  0  0  0  0
 16 18  1  0  0  0  0
 16 17  1  0  0  0  0
 19 25  1  6  0  0  0
 19  1  1  0  0  0  0
 20 19  1  0  0  0  0
 20 22  1  0  0  0  0
 21 20  1  0  0  0  0
 23 20  1  0  0  0  0
 24 25  1  0  0  0  0
M  END
>  <MODEL>
1

>  <REMARK>
  Name = ZINC43251895
                            x       y       z     vdW  Elec       q    Type
                         _______ _______ _______ _____ _____    ______ ____

>  <TORSDO>
F 6

>  <minimizedAffinity>
-7.554731006448832

$$$$
ZINC43251895
 OpenBabel10211213163D

 25 26  0  0  1  0  0  0  0  0999 V2000
   50.2000   54.5330   18.9680 C   0  0  2  0  0  0  0  0  0  0  0  0
   50.3680   53.2870   19.7290 N   0  0  0  0  0  0  0  0  0  0  0  0
   50.7180   53.5670   21.1270 C   0  0  0  0  0  0  0  0  0  0  0  0
   50.7430   52.2590   21.9210 C   0  0  0  0  0  0  0  0  0  0  0  0
   51.7690   51.3100   21.2980 C   0  0  0  0  0  0  0  0  0  0  0  0
   51.4090   51.0720   19.8280 C   0  0  1  0  0  0  0  0  0  0  0  0
   51.3650   52.4160   19.0960 C   0  0  0  0  0  0  0  0  0  0  0  0
   52.4480   50.1850   19.1920 C   0  0  0  0  0  0  0  0  0  0  0  0
   52.8340   49.0500   19.8090 N   0  0  0  0  0  0  0  0  0  0  0  0
   53.5020   48.4790   19.4000 H   0  0  0  0  0  0  0  0  0  0  0  0
   52.4440   48.8060   20.6630 H   0  0  0  0  0  0  0  0  0  0  0  0
   52.9360   50.4910   18.1250 O   0  0  0  0  0  0  0  0  0  0  0  0
   50.6310   55.7020   19.8170 C   0  0  0  0  0  0  0  0  0  0  0  0
   49.8990   56.4410   20.6860 C   0  0  0  0  0  0  0  0  0  0  0  0
   50.5110   57.4780   21.3640 C   0  0  0  0  0  0  0  0  0  0  0  0
   51.8250   57.7260   21.1400 C   0  0  0  0  0  0  0  0  0  0  0  0
   52.8430   58.9450   21.8390 Cl  0  0  0  0  0  0  0  0  0  0  0  0
   52.2400   56.4650   19.9450 S   0  0  0  0  0  0  0  0  0  0  0  0
   48.7300   54.6990   18.5810 C   0  0  1  0  0  0  0  0  0  0  0  0
   48.6120   55.7260   17.5360 N   0  0  0  0  0  0  0  0  0  0  0  0
   47.8740   55.4720   16.8970 H   0  0  0  0  0  0  0  0  0  0  0  0
   49.4840   55.7960   17.0330 H   0  0  0  0  0  0  0  0  0  0  0  0
   48.3970   56.6150   17.9620 H   0  0  0  0  0  0  0  0  0  0  0  0
   47.9390   53.4810   16.5470 C   0  0  0  0  0  0  0  0  0  0  0  0
   48.1880   53.3700   18.0530 C   0  0  0  0  0  0  0  0  0  0  0  0
  1  2  1  1  0  0  0
  1 13  1  0  0  0  0
  2  3  1  0  0  0  0
  3  4  1  0  0  0  0
  5  4  1  0  0  0  0
  6  8  1  1  0  0  0
  6  5  1  0  0  0  0
  7  2  1  0  0  0  0
  7  6  1  0  0  0  0
  8  9  1  0  0  0  0
  9 11  1  0  0  0  0
 10  9  1  0  0  0  0
 12  8  2  0  0  0  0
 13 18  1  0  0  0  0
 13 14  2  0  0  0  0
 14 15  1  0  0  0  0
 16 15  2  0  0  0  0
 16 17  1  0  0  0  0
 18 16  1  0  0  0  0
 19 20  1  6  0  0  0
 19  1  1  0  0  0  0
 20 23  1  0  0  0  0
 21 20  1  0  0  0  0
 22 20  1  0  0  0  0
 24 25  1  0  0  0  0
 25 19  1  0  0  0  0
M  END
>  <MODEL>
2

>  <REMARK>
  Name = ZINC43251895
                            x       y       z     vdW  Elec       q    Type
                         _______ _______ _______ _____ _____    ______ ____

>  <TORSDO>
F 6

>  <minimizedAffinity>
-7.0924300562834111

$$$$
ZINC43251895
 OpenBabel10211213163D

 25 26  0  0  1  0  0  0  0  0999 V2000
   50.2850   51.3470   18.7650 C   0  0  2  0  0  0  0  0  0  0  0  0
   49.4110   50.9630   17.6480 N   0  0  0  0  0  0  0  0  0  0  0  0
   48.3730   50.0230   18.0900 C   0  0  0  0  0  0  0  0  0  0  0  0
   47.3980   49.7580   16.9410 C   0  0  0  0  0  0  0  0  0  0  0  0
   48.1670   49.1780   15.7500 C   0  0  0  0  0  0  0  0  0  0  0  0
   49.2720   50.1550   15.3390 C   0  0  1  0  0  0  0  0  0  0  0  0
   50.1920   50.4070   16.5360 C   0  0  0  0  0  0  0  0  0  0  0  0
   50.0700   49.5650   14.2060 C   0  0  0  0  0  0  0  0  0  0  0  0
   51.1040   48.7410   14.4670 N   0  0  0  0  0  0  0  0  0  0  0  0
   51.6180   48.3610   13.7380 H   0  0  0  0  0  0  0  0  0  0  0  0
   51.3350   48.5290   15.3850 H   0  0  0  0  0  0  0  0  0  0  0  0
   49.7810   49.8300   13.0580 O   0  0  0  0  0  0  0  0  0  0  0  0
   49.9850   52.7670   19.1720 C   0  0  0  0  0  0  0  0  0  0  0  0
   49.3150   53.7270   18.4890 C   0  0  0  0  0  0  0  0  0  0  0  0
   49.1580   54.9730   19.0650 C   0  0  0  0  0  0  0  0  0  0  0  0
   49.6780   55.1980   20.2980 C   0  0  0  0  0  0  0  0  0  0  0  0
   49.6350   56.6450   21.2560 Cl  0  0  0  0  0  0  0  0  0  0  0  0
   50.4100   53.6160   20.6830 S   0  0  0  0  0  0  0  0  0  0  0  0
   51.7470   51.2400   18.3280 C   0  0  1  0  0  0  0  0  0  0  0  0
   52.3220   52.5870   18.2090 N   0  0  0  0  0  0  0  0  0  0  0  0
   52.5080   52.9550   19.1290 H   0  0  0  0  0  0  0  0  0  0  0  0
   51.6700   53.1910   17.7300 H   0  0  0  0  0  0  0  0  0  0  0  0
   53.1830   52.5400   17.6850 H   0  0  0  0  0  0  0  0  0  0  0  0
   51.6120   49.4080   20.0220 C   0  0  0  0  0  0  0  0  0  0  0  0
   52.5330   50.4400   19.3670 C   0  0  0  0  0  0  0  0  0  0  0  0
  1  2  1  6  0  0  0
  1 13  1  0  0  0  0
  2  3  1  0  0  0  0
  4  3  1  0  0  0  0
  5  4  1  0  0  0  0
  6  8  1  1  0  0  0
  6  5  1  0  0  0  0
  6  7  1  0  0  0  0
  7  2  1  0  0  0  0
  8  9  1  0  0  0  0
  9 11  1  0  0  0  0
 10  9  1  0  0  0  0
 12  8  2  0  0  0  0
 13 18  1  0  0  0  0
 14 15  1  0  0  0  0
 14 13  2  0  0  0  0
 15 16  2  0  0  0  0
 16 18  1  0  0  0  0
 16 17  1  0  0  0  0
 19 20  1  1  0  0  0
 19  1  1  0  0  0  0
 19 25  1  0  0  0  0
 20 21  1  0  0  0  0
 22 20  1  0  0  0  0
 23 20  1  0  0  0  0
 25 24  1  0  0  0  0
M  END
>  <MODEL>
3

>  <REMARK>
  Name = ZINC43251895
                            x       y       z     vdW  Elec       q    Type
                         _______ _______ _______ _____ _____    ______ ____

>  <TORSDO>
F 6

>  <minimizedAffinity>
-6.9083252454973207

$$$$
ZINC43251895
 OpenBabel10211213163D

 25 26  0  0  1  0  0  0  0  0999 V2000
   50.3720   52.3790   19.8480 C   0  0  2  0  0  0  0  0  0  0  0  0
   49.8820   52.5420   18.4720 N   0  0  0  0  0  0  0  0  0  0  0  0
   48.7160   53.4320   18.4300 C   0  0  0  0  0  0  0  0  0  0  0  0
   48.3230   53.6940   16.9750 C   0  0  0  0  0  0  0  0  0  0  0  0
   47.9980   52.3620   16.2920 C   0  0  0  0  0  0  0  0  0  0  0  0
   49.2130   51.4360   16.3910 C   0  0  1  0  0  0  0  0  0  0  0  0
   49.5790   51.2410   17.8640 C   0  0  0  0  0  0  0  0  0  0  0  0
   48.8820   50.1020   15.7730 C   0  0  0  0  0  0  0  0  0  0  0  0
   49.4030   48.9720   16.2900 N   0  0  0  0  0  0  0  0  0  0  0  0
   49.1890   48.1140   15.8920 H   0  0  0  0  0  0  0  0  0  0  0  0
   49.9920   49.0170   17.0580 H   0  0  0  0  0  0  0  0  0  0  0  0
   48.1450   50.0460   14.8110 O   0  0  0  0  0  0  0  0  0  0  0  0
   51.0440   53.6510   20.2960 C   0  0  0  0  0  0  0  0  0  0  0  0
   51.1200   54.1830   21.5400 C   0  0  0  0  0  0  0  0  0  0  0  0
   51.7960   55.3750   21.7190 C   0  0  0  0  0  0  0  0  0  0  0  0
   52.3640   55.9770   20.6440 C   0  0  0  0  0  0  0  0  0  0  0  0
   53.2640   57.4600   20.5690 Cl  0  0  0  0  0  0  0  0  0  0  0  0
   51.9530   54.8430   19.3270 S   0  0  0  0  0  0  0  0  0  0  0  0
   51.3770   51.2260   19.8970 C   0  0  1  0  0  0  0  0  0  0  0  0
   52.7340   51.7670   20.0610 N   0  0  0  0  0  0  0  0  0  0  0  0
   52.9260   51.9010   21.0420 H   0  0  0  0  0  0  0  0  0  0  0  0
   52.8040   52.6510   19.5800 H   0  0  0  0  0  0  0  0  0  0  0  0
   53.4020   51.1180   19.6720 H   0  0  0  0  0  0  0  0  0  0  0  0
   50.5770   48.9530   20.5560 C   0  0  0  0  0  0  0  0  0  0  0  0
   51.0470   50.3120   21.0780 C   0  0  0  0  0  0  0  0  0  0  0  0
  1  2  1  6  0  0  0
  1 19  1  0  0  0  0
  1 13  1  0  0  0  0
  3  2  1  0  0  0  0
  4  3  1  0  0  0  0
  5  6  1  0  0  0  0
  5  4  1  0  0  0  0
  6  8  1  1  0  0  0
  6  7  1  0  0  0  0
  7  2  1  0  0  0  0
  8  9  1  0  0  0  0
  9 11  1  0  0  0  0
 10  9  1  0  0  0  0
 12  8  2  0  0  0  0
 13 14  2  0  0  0  0
 14 15  1  0  0  0  0
 16 15  2  0  0  0  0
 17 16  1  0  0  0  0
 18 13  1  0  0  0  0
 18 16  1  0  0  0  0
 19 20  1  1  0  0  0
 19 25  1  0  0  0  0
 20 21  1  0  0  0  0
 22 20  1  0  0  0  0
 23 20  1  0  0  0  0
 24 25  1  0  0  0  0
M  END
>  <MODEL>
4

>  <REMARK>
  Name = ZINC43251895
                            x       y       z     vdW  Elec       q    Type
                         _______ _______ _______ _____ _____    ______ ____

>  <TORSDO>
F 6

>  <minimizedAffinity>
-6.6948820474964377

$$$$
ZINC43251895
 OpenBabel10211213163D

 25 26  0  0  1  0  0  0  0  0999 V2000
   48.2540   49.4880   16.9310 C   0  0  2  0  0  0  0  0  0  0  0  0
   46.9290   49.0110   17.3540 N   0  0  0  0  0  0  0  0  0  0  0  0
   47.0330   48.1530   18.5410 C   0  0  0  0  0  0  0  0  0  0  0  0
   45.6310   47.7940   19.0370 C   0  0  0  0  0  0  0  0  0  0  0  0
   44.8720   47.0680   17.9230 C   0  0  0  0  0  0  0  0  0  0  0  0
   44.8190   47.9640   16.6820 C   0  0  1  0  0  0  0  0  0  0  0  0
   46.2460   48.3180   16.2560 C   0  0  0  0  0  0  0  0  0  0  0  0
   44.1240   47.2330   15.5630 C   0  0  0  0  0  0  0  0  0  0  0  0
   43.8990   45.9080   15.6610 N   0  0  0  0  0  0  0  0  0  0  0  0
   43.4510   45.4380   14.9410 H   0  0  0  0  0  0  0  0  0  0  0  0
   44.1850   45.4250   16.4520 H   0  0  0  0  0  0  0  0  0  0  0  0
   43.7670   47.8370   14.5740 O   0  0  0  0  0  0  0  0  0  0  0  0
   48.3870   50.9530   17.2570 C   0  0  0  0  0  0  0  0  0  0  0  0
   47.4660   51.9410   17.1360 C   0  0  0  0  0  0  0  0  0  0  0  0
   47.8140   53.2280   17.5000 C   0  0  0  0  0  0  0  0  0  0  0  0
   49.0650   53.4650   17.9660 C   0  0  0  0  0  0  0  0  0  0  0  0
   49.7720   54.9620   18.4910 Cl  0  0  0  0  0  0  0  0  0  0  0  0
   49.7940   51.8370   17.9080 S   0  0  0  0  0  0  0  0  0  0  0  0
   48.4110   49.2840   15.4230 C   0  0  1  0  0  0  0  0  0  0  0  0
   48.3700   50.5870   14.7460 N   0  0  0  0  0  0  0  0  0  0  0  0
   48.1420   50.4530   13.7730 H   0  0  0  0  0  0  0  0  0  0  0  0
   49.2700   51.0360   14.8240 H   0  0  0  0  0  0  0  0  0  0  0  0
   47.6660   51.1680   15.1780 H   0  0  0  0  0  0  0  0  0  0  0  0
   50.6410   49.5470   14.3260 C   0  0  0  0  0  0  0  0  0  0  0  0
   49.7510   48.6030   15.1380 C   0  0  0  0  0  0  0  0  0  0  0  0
  1 13  1  6  0  0  0
  1  2  1  0  0  0  0
  2  3  1  0  0  0  0
  3  4  1  0  0  0  0
  5  4  1  0  0  0  0
  6  8  1  6  0  0  0
  6  5  1  0  0  0  0
  7  6  1  0  0  0  0
  7  2  1  0  0  0  0
  8  9  1  0  0  0  0
  9 11  1  0  0  0  0
 10  9  1  0  0  0  0
 12  8  2  0  0  0  0
 13 18  1  0  0  0  0
 14 13  2  0  0  0  0
 14 15  1  0  0  0  0
 15 16  2  0  0  0  0
 16 17  1  0  0  0  0
 18 16  1  0  0  0  0
 19 20  1  1  0  0  0
 19  1  1  0  0  0  0
 20 22  1  0  0  0  0
 20 23  1  0  0  0  0
 21 20  1  0  0  0  0
 24 25  1  0  0  0  0
 25 19  1  0  0  0  0
M  END
>  <MODEL>
5

>  <REMARK>
  Name = ZINC43251895
                            x       y       z     vdW  Elec       q    Type
                         _______ _______ _______ _____ _____    ______ ____

>  <TORSDO>
F 6

>  <minimizedAffinity>
-6.3372841370350921

$$$$
ZINC43251895
 OpenBabel10211213163D

 25 26  0  0  1  0  0  0  0  0999 V2000
   49.9090   55.7940   18.8370 C   0  0  2  0  0  0  0  0  0  0  0  0
   50.9510   55.6900   19.8690 N   0  0  0  0  0  0  0  0  0  0  0  0
   50.4090   55.1130   21.1060 C   0  0  0  0  0  0  0  0  0  0  0  0
   51.5460   54.8860   22.1050 C   0  0  0  0  0  0  0  0  0  0  0  0
   52.2340   56.2210   22.4000 C   0  0  0  0  0  0  0  0  0  0  0  0
   52.7470   56.8240   21.0890 C   0  0  1  0  0  0  0  0  0  0  0  0
   51.5740   56.9950   20.1200 C   0  0  0  0  0  0  0  0  0  0  0  0
   53.3740   58.1660   21.3630 C   0  0  0  0  0  0  0  0  0  0  0  0
   52.7910   59.0180   22.2300 N   0  0  0  0  0  0  0  0  0  0  0  0
   53.1940   59.8820   22.4060 H   0  0  0  0  0  0  0  0  0  0  0  0
   51.9670   58.7670   22.6750 H   0  0  0  0  0  0  0  0  0  0  0  0
   54.4050   58.4790   20.8060 O   0  0  0  0  0  0  0  0  0  0  0  0
   48.9050   56.8420   19.2420 C   0  0  0  0  0  0  0  0  0  0  0  0
   48.1990   56.9460   20.3940 C   0  0  0  0  0  0  0  0  0  0  0  0
   47.3220   58.0040   20.5490 C   0  0  0  0  0  0  0  0  0  0  0  0
   47.1950   58.9050   19.5440 C   0  0  0  0  0  0  0  0  0  0  0  0
   46.1860   60.3150   19.4600 Cl  0  0  0  0  0  0  0  0  0  0  0  0
   48.3420   58.2710   18.3320 S   0  0  0  0  0  0  0  0  0  0  0  0
   49.2060   54.4440   18.6850 C   0  0  1  0  0  0  0  0  0  0  0  0
   48.2810   54.5000   17.5440 N   0  0  0  0  0  0  0  0  0  0  0  0
   47.3830   54.8370   17.8560 H   0  0  0  0  0  0  0  0  0  0  0  0
   48.1770   53.5780   17.1500 H   0  0  0  0  0  0  0  0  0  0  0  0
   48.6500   55.1260   16.8440 H   0  0  0  0  0  0  0  0  0  0  0  0
   49.5450   52.0610   18.0140 C   0  0  0  0  0  0  0  0  0  0  0  0
   50.2480   53.3500   18.4440 C   0  0  0  0  0  0  0  0  0  0  0  0
  1 13  1  1  0  0  0
  1  2  1  0  0  0  0
  2  7  1  0  0  0  0
  2  3  1  0  0  0  0
  3  4  1  0  0  0  0
  4  5  1  0  0  0  0
  6  8  1  1  0  0  0
  6  5  1  0  0  0  0
  7  6  1  0  0  0  0
  8  9  1  0  0  0  0
  9 10  1  0  0  0  0
  9 11  1  0  0  0  0
 12  8  2  0  0  0  0
 13 14  2  0  0  0  0
 14 15  1  0  0  0  0
 16 15  2  0  0  0  0
 17 16  1  0  0  0  0
 18 13  1  0  0  0  0
 18 16  1  0  0  0  0
 19 20  1  6  0  0  0
 19  1  1  0  0  0  0
 20 21  1  0  0  0  0
 22 20  1  0  0  0  0
 23 20  1  0  0  0  0
 24 25  1  0  0  0  0
 25 19  1  0  0  0  0
M  END
>  <MODEL>
6

>  <REMARK>
  Name = ZINC43251895
                            x       y       z     vdW  Elec       q    Type
                         _______ _______ _______ _____ _____    ______ ____

>  <TORSDO>
F 6

>  <minimizedAffinity>
-6.3310454052772274

$$$$
ZINC43251895
 OpenBabel10211213163D

 25 26  0  0  1  0  0  0  0  0999 V2000
   50.9300   50.9190   18.2100 C   0  0  2  0  0  0  0  0  0  0  0  0
   50.2900   51.9740   19.0080 N   0  0  0  0  0  0  0  0  0  0  0  0
   49.5990   52.9400   18.1450 C   0  0  0  0  0  0  0  0  0  0  0  0
   48.8260   53.9380   19.0110 C   0  0  0  0  0  0  0  0  0  0  0  0
   49.8030   54.6620   19.9410 C   0  0  0  0  0  0  0  0  0  0  0  0
   50.5450   53.6300   20.7950 C   0  0  1  0  0  0  0  0  0  0  0  0
   51.2670   52.6420   19.8760 C   0  0  0  0  0  0  0  0  0  0  0  0
   51.5500   54.3310   21.6720 C   0  0  0  0  0  0  0  0  0  0  0  0
   51.6300   54.0250   22.9820 N   0  0  0  0  0  0  0  0  0  0  0  0
   52.2770   54.4760   23.5460 H   0  0  0  0  0  0  0  0  0  0  0  0
   51.0400   53.3550   23.3600 H   0  0  0  0  0  0  0  0  0  0  0  0
   52.2880   55.1690   21.1980 O   0  0  0  0  0  0  0  0  0  0  0  0
   49.9480   50.3890   17.1970 C   0  0  0  0  0  0  0  0  0  0  0  0
   50.0350   50.3870   15.8450 C   0  0  0  0  0  0  0  0  0  0  0  0
   49.0010   49.8410   15.1080 C   0  0  0  0  0  0  0  0  0  0  0  0
   47.9300   49.3230   15.7600 C   0  0  0  0  0  0  0  0  0  0  0  0
   46.5040   48.5820   15.1050 Cl  0  0  0  0  0  0  0  0  0  0  0  0
   48.3720   49.5950   17.4680 S   0  0  0  0  0  0  0  0  0  0  0  0
   51.3760   49.7820   19.1320 C   0  0  1  0  0  0  0  0  0  0  0  0
   52.8440   49.7270   19.1670 N   0  0  0  0  0  0  0  0  0  0  0  0
   53.1890   50.4020   19.8330 H   0  0  0  0  0  0  0  0  0  0  0  0
   53.2110   49.9390   18.2510 H   0  0  0  0  0  0  0  0  0  0  0  0
   53.1390   48.8020   19.4420 H   0  0  0  0  0  0  0  0  0  0  0  0
   50.2780   48.7270   21.1130 C   0  0  0  0  0  0  0  0  0  0  0  0
   50.8400   50.0300   20.5430 C   0  0  0  0  0  0  0  0  0  0  0  0
  1 13  1  1  0  0  0
  1  2  1  0  0  0  0
  1 19  1  0  0  0  0
  2  7  1  0  0  0  0
  3  2  1  0  0  0  0
  3  4  1  0  0  0  0
  4  5  1  0  0  0  0
  5  6  1  0  0  0  0
  6  8  1  6  0  0  0
  7  6  1  0  0  0  0
  8  9  1  0  0  0  0
  9 11  1  0  0  0  0
  9 10  1  0  0  0  0
 12  8  2  0  0  0  0
 13 18  1  0  0  0  0
 14 13  2  0  0  0  0
 15 16  2  0  0  0  0
 15 14  1  0  0  0  0
 16 18  1  0  0  0  0
 17 16  1  0  0  0  0
 19 20  1  1  0  0  0
 19 25  1  0  0  0  0
 20 23  1  0  0  0  0
 20 21  1  0  0  0  0
 22 20  1  0  0  0  0
 25 24  1  0  0  0  0
M  END
>  <MODEL>
7

>  <REMARK>
  Name = ZINC43251895
                            x       y       z     vdW  Elec       q    Type
                         _______ _______ _______ _____ _____    ______ ____

>  <TORSDO>
F 6

>  <minimizedAffinity>
-6.2798624963095238

$$$$
ZINC43251895
 OpenBabel10211213163D

 25 26  0  0  1  0  0  0  0  0999 V2000
   50.5120   53.8260   19.0450 C   0  0  2  0  0  0  0  0  0  0  0  0
   50.6970   52.4600   19.5540 N   0  0  0  0  0  0  0  0  0  0  0  0
   52.1110   52.0680   19.5090 C   0  0  0  0  0  0  0  0  0  0  0  0
   52.2850   50.7030   20.1770 C   0  0  0  0  0  0  0  0  0  0  0  0
   51.4260   49.6690   19.4460 C   0  0  0  0  0  0  0  0  0  0  0  0
   49.9630   50.1240   19.4660 C   0  0  1  0  0  0  0  0  0  0  0  0
   49.8580   51.5070   18.8180 C   0  0  0  0  0  0  0  0  0  0  0  0
   49.1190   49.1410   18.6970 C   0  0  0  0  0  0  0  0  0  0  0  0
   49.5150   48.7200   17.4800 N   0  0  0  0  0  0  0  0  0  0  0  0
   48.9720   48.0880   16.9850 H   0  0  0  0  0  0  0  0  0  0  0  0
   50.3420   49.0520   17.0980 H   0  0  0  0  0  0  0  0  0  0  0  0
   48.0840   48.7270   19.1750 O   0  0  0  0  0  0  0  0  0  0  0  0
   51.1090   54.8100   20.0180 C   0  0  0  0  0  0  0  0  0  0  0  0
   51.1180   54.7710   21.3730 C   0  0  0  0  0  0  0  0  0  0  0  0
   51.7330   55.7950   22.0680 C   0  0  0  0  0  0  0  0  0  0  0  0
   52.3090   56.8080   21.3740 C   0  0  0  0  0  0  0  0  0  0  0  0
   53.1430   58.2080   21.9720 Cl  0  0  0  0  0  0  0  0  0  0  0  0
   51.9970   56.3220   19.6850 S   0  0  0  0  0  0  0  0  0  0  0  0
   49.0180   54.1120   18.8840 C   0  0  1  0  0  0  0  0  0  0  0  0
   48.5930   55.0830   19.9010 N   0  0  0  0  0  0  0  0  0  0  0  0
   49.3950   55.3850   20.4320 H   0  0  0  0  0  0  0  0  0  0  0  0
   47.9220   54.6520   20.5190 H   0  0  0  0  0  0  0  0  0  0  0  0
   48.1700   55.8800   19.4480 H   0  0  0  0  0  0  0  0  0  0  0  0
   47.9750   53.6660   16.6570 C   0  0  0  0  0  0  0  0  0  0  0  0
   48.7550   54.6850   17.4900 C   0  0  0  0  0  0  0  0  0  0  0  0
  1  2  1  1  0  0  0
  1 13  1  0  0  0  0
  3  2  1  0  0  0  0
  3  4  1  0  0  0  0
  5  6  1  0  0  0  0
  5  4  1  0  0  0  0
  6  8  1  6  0  0  0
  7  6  1  0  0  0  0
  7  2  1  0  0  0  0
  8 12  2  0  0  0  0
  9  8  1  0  0  0  0
 10  9  1  0  0  0  0
 11  9  1  0  0  0  0
 13 14  2  0  0  0  0
 14 15  1  0  0  0  0
 16 17  1  0  0  0  0
 16 15  2  0  0  0  0
 18 13  1  0  0  0  0
 18 16  1  0  0  0  0
 19 25  1  6  0  0  0
 19  1  1  0  0  0  0
 19 20  1  0  0  0  0
 20 21  1  0  0  0  0
 20 22  1  0  0  0  0
 23 20  1  0  0  0  0
 24 25  1  0  0  0  0
M  END
>  <MODEL>
8

>  <REMARK>
  Name = ZINC43251895
                            x       y       z     vdW  Elec       q    Type
                         _______ _______ _______ _____ _____    ______ ____

>  <TORSDO>
F 6

>  <minimizedAffinity>
-6.1861869233791769

$$$$
ZINC43251895
 OpenBabel10211213163D

 25 26  0  0  1  0  0  0  0  0999 V2000
   46.9510   47.9960   16.6820 C   0  0  2  0  0  0  0  0  0  0  0  0
   47.8590   49.0030   16.1150 N   0  0  0  0  0  0  0  0  0  0  0  0
   49.0700   48.3740   15.5730 C   0  0  0  0  0  0  0  0  0  0  0  0
   49.9220   49.4290   14.8650 C   0  0  0  0  0  0  0  0  0  0  0  0
   50.2970   50.5280   15.8630 C   0  0  0  0  0  0  0  0  0  0  0  0
   49.0180   51.1350   16.4480 C   0  0  1  0  0  0  0  0  0  0  0  0
   48.1930   50.0290   17.1100 C   0  0  0  0  0  0  0  0  0  0  0  0
   49.3800   52.1780   17.4740 C   0  0  0  0  0  0  0  0  0  0  0  0
   50.6520   52.2850   17.9060 N   0  0  0  0  0  0  0  0  0  0  0  0
   50.8850   52.9560   18.5670 H   0  0  0  0  0  0  0  0  0  0  0  0
   51.3340   51.6900   17.5580 H   0  0  0  0  0  0  0  0  0  0  0  0
   48.5260   52.9210   17.9100 O   0  0  0  0  0  0  0  0  0  0  0  0
   46.0360   47.4800   15.6020 C   0  0  0  0  0  0  0  0  0  0  0  0
   45.6690   48.0740   14.4400 C   0  0  0  0  0  0  0  0  0  0  0  0
   44.8080   47.4050   13.5900 C   0  0  0  0  0  0  0  0  0  0  0  0
   44.3560   46.1760   13.9430 C   0  0  0  0  0  0  0  0  0  0  0  0
   43.2810   45.1170   13.0850 Cl  0  0  0  0  0  0  0  0  0  0  0  0
   45.1620   45.9260   15.5160 S   0  0  0  0  0  0  0  0  0  0  0  0
   46.1180   48.6320   17.7960 C   0  0  1  0  0  0  0  0  0  0  0  0
   44.7660   48.9160   17.2940 N   0  0  0  0  0  0  0  0  0  0  0  0
   44.5020   48.2110   16.6230 H   0  0  0  0  0  0  0  0  0  0  0  0
   44.7540   49.8230   16.8530 H   0  0  0  0  0  0  0  0  0  0  0  0
   44.1130   48.9080   18.0640 H   0  0  0  0  0  0  0  0  0  0  0  0
   44.5760   47.2370   19.1810 C   0  0  0  0  0  0  0  0  0  0  0  0
   46.0300   47.6690   18.9810 C   0  0  0  0  0  0  0  0  0  0  0  0
  1 13  1  6  0  0  0
  1 19  1  0  0  0  0
  2  1  1  0  0  0  0
  2  7  1  0  0  0  0
  3  2  1  0  0  0  0
  4  3  1  0  0  0  0
  4  5  1  0  0  0  0
  5  6  1  0  0  0  0
  6  7  1  0  0  0  0
  6  8  1  1  0  0  0
  8  9  1  0  0  0  0
  8 12  2  0  0  0  0
  9 10  1  0  0  0  0
 11  9  1  0  0  0  0
 14 13  2  0  0  0  0
 15 16  2  0  0  0  0
 15 14  1  0  0  0  0
 16 18  1  0  0  0  0
 17 16  1  0  0  0  0
 18 13  1  0  0  0  0
 19 20  1  6  0  0  0
 19 25  1  0  0  0  0
 20 23  1  0  0  0  0
 21 20  1  0  0  0  0
 22 20  1  0  0  0  0
 25 24  1  0  0  0  0
M  END
>  <MODEL>
9

>  <REMARK>
  Name = ZINC43251895
                            x       y       z     vdW  Elec       q    Type
                         _______ _______ _______ _____ _____    ______ ____

>  <TORSDO>
F 6

>  <minimizedAffinity>
-6.1260574595197284

$$$$
ZINC09437798
 OpenBabel10211213203D

 37 38  0  0  0  0  0  0  0  0999 V2000
   50.8230   55.0350   21.4140 C   0  0  0  0  0  0  0  0  0  0  0  0
   50.8970   56.3150   21.9340 C   0  0  0  0  0  0  0  0  0  0  0  0
   49.9760   57.2700   21.5560 C   0  0  0  0  0  0  0  0  0  0  0  0
   48.9680   56.9420   20.6470 C   0  0  0  0  0  0  0  0  0  0  0  0
   48.9000   55.6480   20.1260 C   0  0  0  0  0  0  0  0  0  0  0  0
   49.8280   54.7030   20.5130 C   0  0  0  0  0  0  0  0  0  0  0  0
   47.9780   57.9590   20.2380 C   0  0  0  0  0  0  0  0  0  0  0  0
   46.8830   57.9880   20.7640 O   0  0  0  0  0  0  0  0  0  0  0  0
   48.2880   58.8550   19.2810 O   0  0  0  0  0  0  0  0  0  0  0  0
   47.2340   59.2200   18.3510 C   0  0  0  0  0  0  0  0  0  0  0  0
   46.8640   60.6670   18.5530 C   0  0  0  0  0  0  0  0  0  0  0  0
   47.2170   61.5860   17.6340 N   0  0  0  0  0  0  0  0  0  0  0  0
   47.7090   61.3180   16.8440 H   0  0  0  0  0  0  0  0  0  0  0  0
   46.8850   62.8800   17.8140 C   0  0  0  0  0  0  0  0  0  0  0  0
   47.2380   63.8010   16.8960 N   0  0  0  0  0  0  0  0  0  0  0  0
   47.7310   63.5320   16.1050 H   0  0  0  0  0  0  0  0  0  0  0  0
   46.2670   63.2170   18.8060 O   0  0  0  0  0  0  0  0  0  0  0  0
   46.2470   61.0010   19.5410 O   0  0  0  0  0  0  0  0  0  0  0  0
   46.8770   65.2070   17.0930 C   0  0  0  0  0  0  0  0  0  0  0  0
   45.5670   65.4900   16.4020 C   0  0  0  0  0  0  0  0  0  0  0  0
   44.7050   66.3140   16.9460 C   0  0  0  0  0  0  0  0  0  0  0  0
   51.8330   53.9970   21.8310 C   0  0  0  0  0  0  0  0  0  0  0  0
   51.3080   52.6600   21.5440 N   0  0  0  0  0  0  0  0  0  0  0  0
   50.5710   52.3050   22.0660 H   0  0  0  0  0  0  0  0  0  0  0  0
   51.9700   51.7540   20.3260 S   0  0  0  0  0  0  0  0  0  0  0  0
   52.7950   50.7800   20.9500 O   0  0  0  0  0  0  0  0  0  0  0  0
   52.4670   52.6700   19.3620 O   0  0  0  0  0  0  0  0  0  0  0  0
   48.5830   49.4990   18.3430 C   0  0  0  0  0  0  0  0  0  0  0  0
   48.8860   50.7860   17.9400 C   0  0  0  0  0  0  0  0  0  0  0  0
   49.9200   51.4750   18.5450 C   0  0  0  0  0  0  0  0  0  0  0  0
   50.6510   50.8760   19.5550 C   0  0  0  0  0  0  0  0  0  0  0  0
   50.3510   49.5870   19.9540 C   0  0  0  0  0  0  0  0  0  0  0  0
   49.3130   48.9010   19.3520 C   0  0  0  0  0  0  0  0  0  0  0  0
   46.5470   48.1430   18.7540 C   0  0  0  0  0  0  0  0  0  0  0  0
   47.4550   48.7490   17.6820 C   0  0  0  0  0  0  0  0  0  0  0  0
   48.0280   47.6330   16.8080 C   0  0  0  0  0  0  0  0  0  0  0  0
   46.6440   49.7120   16.8120 C   0  0  0  0  0  0  0  0  0  0  0  0
  1 22  1  0  0  0  0
  1  2  2  0  0  0  0
  3  2  1  0  0  0  0
  4  3  2  0  0  0  0
  5  6  2  0  0  0  0
  5  4  1  0  0  0  0
  6  1  1  0  0  0  0
  7  4  1  0  0  0  0
  7  8  2  0  0  0  0
  9  7  1  0  0  0  0
 10 11  1  0  0  0  0
 10  9  1  0  0  0  0
 11 18  2  0  0  0  0
 12 14  1  0  0  0  0
 12 11  1  0  0  0  0
 13 12  1  0  0  0  0
 14 17  2  0  0  0  0
 15 19  1  0  0  0  0
 15 14  1  0  0  0  0
 16 15  1  0  0  0  0
 20 21  2  0  0  0  0
 20 19  1  0  0  0  0
 23 22  1  0  0  0  0
 23 24  1  0  0  0  0
 25 26  2  0  0  0  0
 25 23  1  0  0  0  0
 27 25  2  0  0  0  0
 28 33  1  0  0  0  0
 29 28  2  0  0  0  0
 29 30  1  0  0  0  0
 30 31  2  0  0  0  0
 31 32  1  0  0  0  0
 31 25  1  0  0  0  0
 33 32  2  0  0  0  0
 35 28  1  0  0  0  0
 35 34  1  0  0  0  0
 36 35  1  0  0  0  0
 37 35  1  0  0  0  0
M  END
>  <MODEL>
1

>  <REMARK>
  Name = ZINC09437798
                            x       y       z     vdW  Elec       q    Type
                         _______ _______ _______ _____ _____    ______ ____

>  <TORSDO>
F 11

>  <minimizedAffinity>
-9.8526133148808306

$$$$
ZINC09437798
 OpenBabel10211213203D

 37 38  0  0  0  0  0  0  0  0999 V2000
   50.7820   53.2360   21.4640 C   0  0  0  0  0  0  0  0  0  0  0  0
   51.5070   54.1990   22.1430 C   0  0  0  0  0  0  0  0  0  0  0  0
   51.2810   55.5370   21.8960 C   0  0  0  0  0  0  0  0  0  0  0  0
   50.3190   55.9180   20.9600 C   0  0  0  0  0  0  0  0  0  0  0  0
   49.5910   54.9410   20.2780 C   0  0  0  0  0  0  0  0  0  0  0  0
   49.8270   53.6060   20.5340 C   0  0  0  0  0  0  0  0  0  0  0  0
   50.0720   57.3490   20.6900 C   0  0  0  0  0  0  0  0  0  0  0  0
   50.7210   58.1980   21.2690 O   0  0  0  0  0  0  0  0  0  0  0  0
   49.1260   57.7150   19.8030 O   0  0  0  0  0  0  0  0  0  0  0  0
   47.9890   58.4570   20.3180 C   0  0  0  0  0  0  0  0  0  0  0  0
   47.4570   59.3710   19.2440 C   0  0  0  0  0  0  0  0  0  0  0  0
   47.1930   60.6610   19.5280 N   0  0  0  0  0  0  0  0  0  0  0  0
   47.3450   61.0020   20.4230 H   0  0  0  0  0  0  0  0  0  0  0  0
   46.7170   61.4790   18.5680 C   0  0  0  0  0  0  0  0  0  0  0  0
   46.4520   62.7690   18.8520 N   0  0  0  0  0  0  0  0  0  0  0  0
   46.6050   63.1100   19.7470 H   0  0  0  0  0  0  0  0  0  0  0  0
   46.5260   61.0520   17.4460 O   0  0  0  0  0  0  0  0  0  0  0  0
   47.2670   58.9450   18.1250 O   0  0  0  0  0  0  0  0  0  0  0  0
   45.9350   63.6570   17.8080 C   0  0  0  0  0  0  0  0  0  0  0  0
   47.0380   64.5720   17.3360 C   0  0  0  0  0  0  0  0  0  0  0  0
   46.7590   65.8010   16.9780 C   0  0  0  0  0  0  0  0  0  0  0  0
   51.0330   51.7750   21.7390 C   0  0  0  0  0  0  0  0  0  0  0  0
   52.3770   51.4150   21.2810 N   0  0  0  0  0  0  0  0  0  0  0  0
   53.1370   51.5210   21.8760 H   0  0  0  0  0  0  0  0  0  0  0  0
   52.6020   50.8280   19.7490 S   0  0  0  0  0  0  0  0  0  0  0  0
   53.4080   49.6650   19.8760 O   0  0  0  0  0  0  0  0  0  0  0  0
   52.9800   51.9330   18.9410 O   0  0  0  0  0  0  0  0  0  0  0  0
   48.5650   49.4430   18.2410 C   0  0  0  0  0  0  0  0  0  0  0  0
   49.1700   50.5520   17.6790 C   0  0  0  0  0  0  0  0  0  0  0  0
   50.4030   50.9750   18.1390 C   0  0  0  0  0  0  0  0  0  0  0  0
   51.0300   50.2890   19.1630 C   0  0  0  0  0  0  0  0  0  0  0  0
   50.4280   49.1770   19.7200 C   0  0  0  0  0  0  0  0  0  0  0  0
   49.1930   48.7570   19.2630 C   0  0  0  0  0  0  0  0  0  0  0  0
   46.5140   48.1800   18.8310 C   0  0  0  0  0  0  0  0  0  0  0  0
   47.2210   48.9830   17.7370 C   0  0  0  0  0  0  0  0  0  0  0  0
   47.4140   48.1020   16.5010 C   0  0  0  0  0  0  0  0  0  0  0  0
   46.3710   50.2000   17.3680 C   0  0  0  0  0  0  0  0  0  0  0  0
  1 22  1  0  0  0  0
  1  2  2  0  0  0  0
  3  2  1  0  0  0  0
  4  3  2  0  0  0  0
  5  6  2  0  0  0  0
  5  4  1  0  0  0  0
  6  1  1  0  0  0  0
  7  4  1  0  0  0  0
  7  8  2  0  0  0  0
  9 10  1  0  0  0  0
  9  7  1  0  0  0  0
 11 12  1  0  0  0  0
 11 10  1  0  0  0  0
 12 13  1  0  0  0  0
 14 15  1  0  0  0  0
 14 12  1  0  0  0  0
 15 16  1  0  0  0  0
 17 14  2  0  0  0  0
 18 11  2  0  0  0  0
 19 15  1  0  0  0  0
 20 19  1  0  0  0  0
 21 20  2  0  0  0  0
 23 22  1  0  0  0  0
 23 24  1  0  0  0  0
 25 26  2  0  0  0  0
 25 23  1  0  0  0  0
 27 25  2  0  0  0  0
 28 33  2  0  0  0  0
 29 30  2  0  0  0  0
 29 28  1  0  0  0  0
 30 31  1  0  0  0  0
 31 32  2  0  0  0  0
 31 25  1  0  0  0  0
 33 32  1  0  0  0  0
 35 28  1  0  0  0  0
 35 34  1  0  0  0  0
 36 35  1  0  0  0  0
 37 35  1  0  0  0  0
M  END
>  <MODEL>
2

>  <REMARK>
  Name = ZINC09437798
                            x       y       z     vdW  Elec       q    Type
                         _______ _______ _______ _____ _____    ______ ____

>  <TORSDO>
F 11

>  <minimizedAffinity>
-9.842169282761585

$$$$
ZINC09437798
 OpenBabel10211213203D

 37 38  0  0  0  0  0  0  0  0999 V2000
   48.5030   50.1230   17.9960 C   0  0  0  0  0  0  0  0  0  0  0  0
   47.4530   50.5820   17.2210 C   0  0  0  0  0  0  0  0  0  0  0  0
   46.2530   49.9020   17.2080 C   0  0  0  0  0  0  0  0  0  0  0  0
   46.1000   48.7490   17.9800 C   0  0  0  0  0  0  0  0  0  0  0  0
   47.1640   48.2910   18.7600 C   0  0  0  0  0  0  0  0  0  0  0  0
   48.3590   48.9810   18.7630 C   0  0  0  0  0  0  0  0  0  0  0  0
   44.8170   48.0160   17.9720 C   0  0  0  0  0  0  0  0  0  0  0  0
   44.3620   47.5760   19.0090 O   0  0  0  0  0  0  0  0  0  0  0  0
   44.1520   47.8330   16.8150 O   0  0  0  0  0  0  0  0  0  0  0  0
   44.6790   46.8360   15.9000 C   0  0  0  0  0  0  0  0  0  0  0  0
   44.9740   47.4790   14.5700 C   0  0  0  0  0  0  0  0  0  0  0  0
   43.9640   47.8070   13.7410 N   0  0  0  0  0  0  0  0  0  0  0  0
   43.0470   47.6290   14.0000 H   0  0  0  0  0  0  0  0  0  0  0  0
   44.2280   48.3830   12.5510 C   0  0  0  0  0  0  0  0  0  0  0  0
   43.2180   48.7100   11.7220 N   0  0  0  0  0  0  0  0  0  0  0  0
   42.3010   48.5320   11.9810 H   0  0  0  0  0  0  0  0  0  0  0  0
   45.3780   48.6050   12.2260 O   0  0  0  0  0  0  0  0  0  0  0  0
   46.1210   47.7020   14.2460 O   0  0  0  0  0  0  0  0  0  0  0  0
   43.5060   49.3350   10.4290 C   0  0  0  0  0  0  0  0  0  0  0  0
   43.0190   50.7620   10.4420 C   0  0  0  0  0  0  0  0  0  0  0  0
   43.8810   51.7480   10.4780 C   0  0  0  0  0  0  0  0  0  0  0  0
   49.8120   50.8710   18.0050 C   0  0  0  0  0  0  0  0  0  0  0  0
   50.8490   50.0340   18.6120 N   0  0  0  0  0  0  0  0  0  0  0  0
   50.6530   49.1150   18.8510 H   0  0  0  0  0  0  0  0  0  0  0  0
   52.3580   50.6570   18.8910 S   0  0  0  0  0  0  0  0  0  0  0  0
   52.9170   50.9520   17.6180 O   0  0  0  0  0  0  0  0  0  0  0  0
   52.9920   49.7870   19.8180 O   0  0  0  0  0  0  0  0  0  0  0  0
   51.7970   54.6200   21.0050 C   0  0  0  0  0  0  0  0  0  0  0  0
   52.2140   54.5920   19.6880 C   0  0  0  0  0  0  0  0  0  0  0  0
   52.3860   53.3820   19.0410 C   0  0  0  0  0  0  0  0  0  0  0  0
   52.1410   52.1990   19.7150 C   0  0  0  0  0  0  0  0  0  0  0  0
   51.7180   52.2270   21.0300 C   0  0  0  0  0  0  0  0  0  0  0  0
   51.5510   53.4380   21.6770 C   0  0  0  0  0  0  0  0  0  0  0  0
   51.7390   55.7360   23.2180 C   0  0  0  0  0  0  0  0  0  0  0  0
   51.6100   55.9400   21.7080 C   0  0  0  0  0  0  0  0  0  0  0  0
   50.2240   56.4980   21.3840 C   0  0  0  0  0  0  0  0  0  0  0  0
   52.6800   56.9260   21.2330 C   0  0  0  0  0  0  0  0  0  0  0  0
  1 22  1  0  0  0  0
  1  6  2  0  0  0  0
  2  1  1  0  0  0  0
  3  2  2  0  0  0  0
  3  4  1  0  0  0  0
  4  5  2  0  0  0  0
  5  6  1  0  0  0  0
  7  4  1  0  0  0  0
  7  8  2  0  0  0  0
  9  7  1  0  0  0  0
 10  9  1  0  0  0  0
 11 10  1  0  0  0  0
 12 13  1  0  0  0  0
 12 11  1  0  0  0  0
 14 12  1  0  0  0  0
 15 16  1  0  0  0  0
 15 14  1  0  0  0  0
 17 14  2  0  0  0  0
 18 11  2  0  0  0  0
 19 20  1  0  0  0  0
 19 15  1  0  0  0  0
 20 21  2  0  0  0  0
 22 23  1  0  0  0  0
 23 24  1  0  0  0  0
 23 25  1  0  0  0  0
 25 31  1  0  0  0  0
 25 27  2  0  0  0  0
 26 25  2  0  0  0  0
 28 33  2  0  0  0  0
 28 35  1  0  0  0  0
 29 28  1  0  0  0  0
 30 29  2  0  0  0  0
 30 31  1  0  0  0  0
 31 32  2  0  0  0  0
 32 33  1  0  0  0  0
 35 34  1  0  0  0  0
 36 35  1  0  0  0  0
 37 35  1  0  0  0  0
M  END
>  <MODEL>
3

>  <REMARK>
  Name = ZINC09437798
                            x       y       z     vdW  Elec       q    Type
                         _______ _______ _______ _____ _____    ______ ____

>  <TORSDO>
F 11

>  <minimizedAffinity>
-9.6473333594594131

$$$$
ZINC09437798
 OpenBabel10211213203D

 37 38  0  0  0  0  0  0  0  0999 V2000
   50.7520   55.2130   21.3620 C   0  0  0  0  0  0  0  0  0  0  0  0
   49.7590   54.8690   20.4610 C   0  0  0  0  0  0  0  0  0  0  0  0
   48.7720   55.7760   20.1390 C   0  0  0  0  0  0  0  0  0  0  0  0
   48.7760   57.0440   20.7230 C   0  0  0  0  0  0  0  0  0  0  0  0
   49.7800   57.3840   21.6310 C   0  0  0  0  0  0  0  0  0  0  0  0
   50.7620   56.4670   21.9450 C   0  0  0  0  0  0  0  0  0  0  0  0
   47.7220   58.0210   20.3810 C   0  0  0  0  0  0  0  0  0  0  0  0
   46.5690   57.8080   20.6990 O   0  0  0  0  0  0  0  0  0  0  0  0
   48.0390   59.1500   19.7180 O   0  0  0  0  0  0  0  0  0  0  0  0
   47.1230   59.5840   18.6780 C   0  0  0  0  0  0  0  0  0  0  0  0
   46.4260   60.8460   19.1160 C   0  0  0  0  0  0  0  0  0  0  0  0
   45.1040   60.9950   18.9010 N   0  0  0  0  0  0  0  0  0  0  0  0
   44.6010   60.2910   18.4640 H   0  0  0  0  0  0  0  0  0  0  0  0
   44.4800   62.1240   19.2930 C   0  0  0  0  0  0  0  0  0  0  0  0
   43.1590   62.2740   19.0770 N   0  0  0  0  0  0  0  0  0  0  0  0
   42.6560   61.5690   18.6410 H   0  0  0  0  0  0  0  0  0  0  0  0
   45.1110   63.0070   19.8400 O   0  0  0  0  0  0  0  0  0  0  0  0
   47.0550   61.7270   19.6620 O   0  0  0  0  0  0  0  0  0  0  0  0
   42.4820   63.5010   19.5030 C   0  0  0  0  0  0  0  0  0  0  0  0
   42.2600   64.3930   18.3080 C   0  0  0  0  0  0  0  0  0  0  0  0
   42.9210   65.5190   18.2010 C   0  0  0  0  0  0  0  0  0  0  0  0
   51.8280   54.2160   21.7100 C   0  0  0  0  0  0  0  0  0  0  0  0
   51.3310   52.8580   21.4770 N   0  0  0  0  0  0  0  0  0  0  0  0
   50.5900   52.5160   22.0030 H   0  0  0  0  0  0  0  0  0  0  0  0
   52.0320   51.9060   20.3180 S   0  0  0  0  0  0  0  0  0  0  0  0
   52.8430   50.9630   21.0050 O   0  0  0  0  0  0  0  0  0  0  0  0
   52.5540   52.7840   19.3320 O   0  0  0  0  0  0  0  0  0  0  0  0
   48.7140   49.5550   18.3310 C   0  0  0  0  0  0  0  0  0  0  0  0
   48.9510   50.8640   17.9580 C   0  0  0  0  0  0  0  0  0  0  0  0
   49.9650   51.5830   18.5650 C   0  0  0  0  0  0  0  0  0  0  0  0
   50.7390   50.9910   19.5450 C   0  0  0  0  0  0  0  0  0  0  0  0
   50.5050   49.6790   19.9140 C   0  0  0  0  0  0  0  0  0  0  0  0
   49.4880   48.9630   19.3100 C   0  0  0  0  0  0  0  0  0  0  0  0
   46.6450   48.2470   18.7340 C   0  0  0  0  0  0  0  0  0  0  0  0
   47.6080   48.7730   17.6680 C   0  0  0  0  0  0  0  0  0  0  0  0
   48.2090   47.5960   16.8980 C   0  0  0  0  0  0  0  0  0  0  0  0
   46.8500   49.6830   16.7000 C   0  0  0  0  0  0  0  0  0  0  0  0
  1 22  1  0  0  0  0
  1  6  2  0  0  0  0
  2  1  1  0  0  0  0
  3  2  2  0  0  0  0
  3  4  1  0  0  0  0
  4  5  2  0  0  0  0
  5  6  1  0  0  0  0
  7  8  2  0  0  0  0
  7  4  1  0  0  0  0
  9  7  1  0  0  0  0
 10 11  1  0  0  0  0
 10  9  1  0  0  0  0
 11 18  2  0  0  0  0
 12 11  1  0  0  0  0
 12 14  1  0  0  0  0
 13 12  1  0  0  0  0
 14 17  2  0  0  0  0
 15 14  1  0  0  0  0
 15 19  1  0  0  0  0
 16 15  1  0  0  0  0
 20 19  1  0  0  0  0
 21 20  2  0  0  0  0
 23 22  1  0  0  0  0
 23 24  1  0  0  0  0
 25 26  2  0  0  0  0
 25 23  1  0  0  0  0
 27 25  2  0  0  0  0
 28 33  1  0  0  0  0
 29 28  2  0  0  0  0
 29 30  1  0  0  0  0
 30 31  2  0  0  0  0
 31 32  1  0  0  0  0
 31 25  1  0  0  0  0
 33 32  2  0  0  0  0
 35 28  1  0  0  0  0
 35 34  1  0  0  0  0
 36 35  1  0  0  0  0
 37 35  1  0  0  0  0
M  END
>  <MODEL>
4

>  <REMARK>
  Name = ZINC09437798
                            x       y       z     vdW  Elec       q    Type
                         _______ _______ _______ _____ _____    ______ ____

>  <TORSDO>
F 11

>  <minimizedAffinity>
-9.564787916306587

$$$$
ZINC09437798
 OpenBabel10211213203D

 37 38  0  0  0  0  0  0  0  0999 V2000
   48.4220   50.1510   18.0460 C   0  0  0  0  0  0  0  0  0  0  0  0
   48.2900   48.9930   18.7920 C   0  0  0  0  0  0  0  0  0  0  0  0
   47.1050   48.2870   18.7710 C   0  0  0  0  0  0  0  0  0  0  0  0
   46.0390   48.7420   17.9940 C   0  0  0  0  0  0  0  0  0  0  0  0
   46.1790   49.9120   17.2440 C   0  0  0  0  0  0  0  0  0  0  0  0
   47.3690   50.6080   17.2740 C   0  0  0  0  0  0  0  0  0  0  0  0
   44.7670   47.9910   17.9660 C   0  0  0  0  0  0  0  0  0  0  0  0
   44.3220   47.5110   18.9890 O   0  0  0  0  0  0  0  0  0  0  0  0
   44.1000   47.8380   16.8050 O   0  0  0  0  0  0  0  0  0  0  0  0
   44.4870   46.7200   15.9640 C   0  0  0  0  0  0  0  0  0  0  0  0
   44.8940   47.2300   14.6050 C   0  0  0  0  0  0  0  0  0  0  0  0
   44.9760   46.3800   13.5630 N   0  0  0  0  0  0  0  0  0  0  0  0
   44.7740   45.4410   13.6870 H   0  0  0  0  0  0  0  0  0  0  0  0
   45.3400   46.8370   12.3480 C   0  0  0  0  0  0  0  0  0  0  0  0
   45.4230   45.9870   11.3060 N   0  0  0  0  0  0  0  0  0  0  0  0
   45.2200   45.0470   11.4300 H   0  0  0  0  0  0  0  0  0  0  0  0
   45.5940   48.0160   12.1930 O   0  0  0  0  0  0  0  0  0  0  0  0
   45.1470   48.4060   14.4510 O   0  0  0  0  0  0  0  0  0  0  0  0
   45.8180   46.4840    9.9860 C   0  0  0  0  0  0  0  0  0  0  0  0
   46.6000   45.4170    9.2610 C   0  0  0  0  0  0  0  0  0  0  0  0
   46.6060   44.1880    9.7160 C   0  0  0  0  0  0  0  0  0  0  0  0
   49.7190   50.9170   18.0740 C   0  0  0  0  0  0  0  0  0  0  0  0
   50.8080   50.0220   18.4730 N   0  0  0  0  0  0  0  0  0  0  0  0
   50.6440   49.0710   18.5670 H   0  0  0  0  0  0  0  0  0  0  0  0
   52.3190   50.6340   18.7650 S   0  0  0  0  0  0  0  0  0  0  0  0
   52.8830   50.9390   17.4970 O   0  0  0  0  0  0  0  0  0  0  0  0
   52.9450   49.7500   19.6840 O   0  0  0  0  0  0  0  0  0  0  0  0
   51.7760   54.5740   20.9240 C   0  0  0  0  0  0  0  0  0  0  0  0
   51.5050   53.3860   21.5760 C   0  0  0  0  0  0  0  0  0  0  0  0
   51.6710   52.1820   20.9170 C   0  0  0  0  0  0  0  0  0  0  0  0
   52.1070   52.1680   19.6050 C   0  0  0  0  0  0  0  0  0  0  0  0
   52.3830   53.3560   18.9550 C   0  0  0  0  0  0  0  0  0  0  0  0
   52.2120   54.5600   19.6130 C   0  0  0  0  0  0  0  0  0  0  0  0
   51.7240   55.6630   23.1520 C   0  0  0  0  0  0  0  0  0  0  0  0
   51.5950   55.8860   21.6440 C   0  0  0  0  0  0  0  0  0  0  0  0
   50.2100   56.4540   21.3290 C   0  0  0  0  0  0  0  0  0  0  0  0
   52.6680   56.8740   21.1810 C   0  0  0  0  0  0  0  0  0  0  0  0
  1 22  1  0  0  0  0
  1  2  2  0  0  0  0
  3  2  1  0  0  0  0
  4  3  2  0  0  0  0
  5  6  2  0  0  0  0
  5  4  1  0  0  0  0
  6  1  1  0  0  0  0
  7  4  1  0  0  0  0
  7  8  2  0  0  0  0
  9  7  1  0  0  0  0
 10  9  1  0  0  0  0
 11 10  1  0  0  0  0
 12 13  1  0  0  0  0
 12 11  1  0  0  0  0
 14 12  1  0  0  0  0
 15 16  1  0  0  0  0
 15 14  1  0  0  0  0
 17 14  2  0  0  0  0
 18 11  2  0  0  0  0
 19 15  1  0  0  0  0
 20 21  2  0  0  0  0
 20 19  1  0  0  0  0
 22 23  1  0  0  0  0
 23 24  1  0  0  0  0
 23 25  1  0  0  0  0
 25 31  1  0  0  0  0
 25 27  2  0  0  0  0
 26 25  2  0  0  0  0
 28 29  1  0  0  0  0
 28 35  1  0  0  0  0
 30 29  2  0  0  0  0
 31 30  1  0  0  0  0
 32 31  2  0  0  0  0
 32 33  1  0  0  0  0
 33 28  2  0  0  0  0
 35 34  1  0  0  0  0
 36 35  1  0  0  0  0
 37 35  1  0  0  0  0
M  END
>  <MODEL>
5

>  <REMARK>
  Name = ZINC09437798
                            x       y       z     vdW  Elec       q    Type
                         _______ _______ _______ _____ _____    ______ ____

>  <TORSDO>
F 11

>  <minimizedAffinity>
-9.4687851645793977

$$$$
ZINC09437798
 OpenBabel10211213203D

 37 38  0  0  0  0  0  0  0  0999 V2000
   50.6030   54.2100   20.7980 C   0  0  0  0  0  0  0  0  0  0  0  0
   49.4170   54.2110   20.0850 C   0  0  0  0  0  0  0  0  0  0  0  0
   48.6400   55.3490   20.0360 C   0  0  0  0  0  0  0  0  0  0  0  0
   49.0520   56.5010   20.7060 C   0  0  0  0  0  0  0  0  0  0  0  0
   50.2490   56.4930   21.4240 C   0  0  0  0  0  0  0  0  0  0  0  0
   51.0180   55.3480   21.4660 C   0  0  0  0  0  0  0  0  0  0  0  0
   48.2240   57.7240   20.6580 C   0  0  0  0  0  0  0  0  0  0  0  0
   48.3690   58.5900   21.4970 O   0  0  0  0  0  0  0  0  0  0  0  0
   47.3080   57.8800   19.6820 O   0  0  0  0  0  0  0  0  0  0  0  0
   47.6880   58.6970   18.5440 C   0  0  0  0  0  0  0  0  0  0  0  0
   47.5250   57.9000   17.2750 C   0  0  0  0  0  0  0  0  0  0  0  0
   46.5560   58.2240   16.3970 N   0  0  0  0  0  0  0  0  0  0  0  0
   45.9640   58.9690   16.5800 H   0  0  0  0  0  0  0  0  0  0  0  0
   46.4110   57.5120   15.2610 C   0  0  0  0  0  0  0  0  0  0  0  0
   45.4420   57.8340   14.3830 N   0  0  0  0  0  0  0  0  0  0  0  0
   44.8490   58.5800   14.5670 H   0  0  0  0  0  0  0  0  0  0  0  0
   47.1540   56.5770   15.0310 O   0  0  0  0  0  0  0  0  0  0  0  0
   48.2660   56.9690   17.0460 O   0  0  0  0  0  0  0  0  0  0  0  0
   45.2840   57.0600   13.1490 C   0  0  0  0  0  0  0  0  0  0  0  0
   45.8030   57.8630   11.9830 C   0  0  0  0  0  0  0  0  0  0  0  0
   46.3810   57.2550   10.9760 C   0  0  0  0  0  0  0  0  0  0  0  0
   51.4480   52.9630   20.8470 C   0  0  0  0  0  0  0  0  0  0  0  0
   51.8920   52.6190   19.4950 N   0  0  0  0  0  0  0  0  0  0  0  0
   52.0650   53.3210   18.8480 H   0  0  0  0  0  0  0  0  0  0  0  0
   52.1000   51.0320   19.0690 S   0  0  0  0  0  0  0  0  0  0  0  0
   52.5270   50.3510   20.2400 O   0  0  0  0  0  0  0  0  0  0  0  0
   52.8560   51.0300   17.8670 O   0  0  0  0  0  0  0  0  0  0  0  0
   48.0160   49.3820   18.0290 C   0  0  0  0  0  0  0  0  0  0  0  0
   48.4750   50.5280   17.4090 C   0  0  0  0  0  0  0  0  0  0  0  0
   49.7230   51.0330   17.7270 C   0  0  0  0  0  0  0  0  0  0  0  0
   50.5090   50.3900   18.6650 C   0  0  0  0  0  0  0  0  0  0  0  0
   50.0510   49.2400   19.2800 C   0  0  0  0  0  0  0  0  0  0  0  0
   48.8020   48.7390   18.9660 C   0  0  0  0  0  0  0  0  0  0  0  0
   46.1260   48.0030   18.8530 C   0  0  0  0  0  0  0  0  0  0  0  0
   46.6550   48.8320   17.6820 C   0  0  0  0  0  0  0  0  0  0  0  0
   46.7640   47.9490   16.4380 C   0  0  0  0  0  0  0  0  0  0  0  0
   45.6950   49.9900   17.4020 C   0  0  0  0  0  0  0  0  0  0  0  0
  1 22  1  0  0  0  0
  1  6  2  0  0  0  0
  2  1  1  0  0  0  0
  3  2  2  0  0  0  0
  3  4  1  0  0  0  0
  4  5  2  0  0  0  0
  5  6  1  0  0  0  0
  7  4  1  0  0  0  0
  7  8  2  0  0  0  0
  9  7  1  0  0  0  0
 10  9  1  0  0  0  0
 11 10  1  0  0  0  0
 12 13  1  0  0  0  0
 12 11  1  0  0  0  0
 14 12  1  0  0  0  0
 15 16  1  0  0  0  0
 15 14  1  0  0  0  0
 17 14  2  0  0  0  0
 18 11  2  0  0  0  0
 19 15  1  0  0  0  0
 20 19  1  0  0  0  0
 21 20  2  0  0  0  0
 23 22  1  0  0  0  0
 24 23  1  0  0  0  0
 25 23  1  0  0  0  0
 25 26  2  0  0  0  0
 27 25  2  0  0  0  0
 28 33  2  0  0  0  0
 29 30  2  0  0  0  0
 29 28  1  0  0  0  0
 30 31  1  0  0  0  0
 31 25  1  0  0  0  0
 31 32  2  0  0  0  0
 33 32  1  0  0  0  0
 35 28  1  0  0  0  0
 35 34  1  0  0  0  0
 36 35  1  0  0  0  0
 37 35  1  0  0  0  0
M  END
>  <MODEL>
6

>  <REMARK>
  Name = ZINC09437798
                            x       y       z     vdW  Elec       q    Type
                         _______ _______ _______ _____ _____    ______ ____

>  <TORSDO>
F 11

>  <minimizedAffinity>
-9.2978552689105971

$$$$
ZINC09437798
 OpenBabel10211213203D

 37 38  0  0  0  0  0  0  0  0999 V2000
   48.0860   53.2860   16.6170 C   0  0  0  0  0  0  0  0  0  0  0  0
   48.1910   51.9870   16.1510 C   0  0  0  0  0  0  0  0  0  0  0  0
   49.0500   51.1000   16.7650 C   0  0  0  0  0  0  0  0  0  0  0  0
   49.8130   51.5140   17.8590 C   0  0  0  0  0  0  0  0  0  0  0  0
   49.7010   52.8260   18.3230 C   0  0  0  0  0  0  0  0  0  0  0  0
   48.8380   53.7040   17.7000 C   0  0  0  0  0  0  0  0  0  0  0  0
   50.7340   50.5680   18.5210 C   0  0  0  0  0  0  0  0  0  0  0  0
   50.3080   49.5330   18.9930 O   0  0  0  0  0  0  0  0  0  0  0  0
   52.0480   50.8530   18.6040 O   0  0  0  0  0  0  0  0  0  0  0  0
   52.6950   50.6210   19.8830 C   0  0  0  0  0  0  0  0  0  0  0  0
   52.2320   51.6560   20.8760 C   0  0  0  0  0  0  0  0  0  0  0  0
   52.2740   52.9640   20.5560 N   0  0  0  0  0  0  0  0  0  0  0  0
   52.6030   53.2400   19.6870 H   0  0  0  0  0  0  0  0  0  0  0  0
   51.8590   53.8890   21.4440 C   0  0  0  0  0  0  0  0  0  0  0  0
   51.9030   55.1970   21.1250 N   0  0  0  0  0  0  0  0  0  0  0  0
   52.2320   55.4730   20.2560 H   0  0  0  0  0  0  0  0  0  0  0  0
   51.4470   53.5420   22.5340 O   0  0  0  0  0  0  0  0  0  0  0  0
   51.8200   51.3100   21.9630 O   0  0  0  0  0  0  0  0  0  0  0  0
   51.4520   56.2020   22.0910 C   0  0  0  0  0  0  0  0  0  0  0  0
   50.2020   56.8690   21.5740 C   0  0  0  0  0  0  0  0  0  0  0  0
   49.4480   56.2550   20.6970 C   0  0  0  0  0  0  0  0  0  0  0  0
   47.1450   54.2510   15.9420 C   0  0  0  0  0  0  0  0  0  0  0  0
   47.8240   55.5320   15.7340 N   0  0  0  0  0  0  0  0  0  0  0  0
   48.6860   55.6970   16.1490 H   0  0  0  0  0  0  0  0  0  0  0  0
   47.1230   56.6990   14.7920 S   0  0  0  0  0  0  0  0  0  0  0  0
   45.8840   56.1670   14.3430 O   0  0  0  0  0  0  0  0  0  0  0  0
   48.1260   57.1550   13.8960 O   0  0  0  0  0  0  0  0  0  0  0  0
   46.1240   60.1830   17.5040 C   0  0  0  0  0  0  0  0  0  0  0  0
   45.4420   60.0170   16.3130 C   0  0  0  0  0  0  0  0  0  0  0  0
   45.7470   58.9520   15.4850 C   0  0  0  0  0  0  0  0  0  0  0  0
   46.7350   58.0560   15.8480 C   0  0  0  0  0  0  0  0  0  0  0  0
   47.4120   58.2190   17.0410 C   0  0  0  0  0  0  0  0  0  0  0  0
   47.1110   59.2860   17.8670 C   0  0  0  0  0  0  0  0  0  0  0  0
   45.7150   62.6280   17.5790 C   0  0  0  0  0  0  0  0  0  0  0  0
   45.7910   61.3440   18.4060 C   0  0  0  0  0  0  0  0  0  0  0  0
   46.8770   61.4870   19.4740 C   0  0  0  0  0  0  0  0  0  0  0  0
   44.4410   61.0920   19.0820 C   0  0  0  0  0  0  0  0  0  0  0  0
  1  6  1  0  0  0  0
  2  1  2  0  0  0  0
  2  3  1  0  0  0  0
  3  4  2  0  0  0  0
  4  5  1  0  0  0  0
  4  7  1  0  0  0  0
  6  5  2  0  0  0  0
  7  9  1  0  0  0  0
  7  8  2  0  0  0  0
  9 10  1  0  0  0  0
 10 11  1  0  0  0  0
 11 18  2  0  0  0  0
 12 11  1  0  0  0  0
 12 14  1  0  0  0  0
 13 12  1  0  0  0  0
 14 17  2  0  0  0  0
 15 14  1  0  0  0  0
 15 19  1  0  0  0  0
 16 15  1  0  0  0  0
 20 19  1  0  0  0  0
 21 20  2  0  0  0  0
 22  1  1  0  0  0  0
 23 22  1  0  0  0  0
 23 24  1  0  0  0  0
 25 23  1  0  0  0  0
 25 31  1  0  0  0  0
 26 25  2  0  0  0  0
 27 25  2  0  0  0  0
 28 33  1  0  0  0  0
 28 35  1  0  0  0  0
 29 28  2  0  0  0  0
 30 31  2  0  0  0  0
 30 29  1  0  0  0  0
 31 32  1  0  0  0  0
 32 33  2  0  0  0  0
 34 35  1  0  0  0  0
 35 37  1  0  0  0  0
 35 36  1  0  0  0  0
M  END
>  <MODEL>
7

>  <REMARK>
  Name = ZINC09437798
                            x       y       z     vdW  Elec       q    Type
                         _______ _______ _______ _____ _____    ______ ____

>  <TORSDO>
F 11

>  <minimizedAffinity>
-9.1230396463905628

$$$$
ZINC09437798
 OpenBabel10211213203D

 37 38  0  0  0  0  0  0  0  0999 V2000
   51.0090   54.0340   21.0360 C   0  0  0  0  0  0  0  0  0  0  0  0
   49.8550   54.0470   20.2730 C   0  0  0  0  0  0  0  0  0  0  0  0
   49.0580   55.1720   20.2410 C   0  0  0  0  0  0  0  0  0  0  0  0
   49.4190   56.3000   20.9800 C   0  0  0  0  0  0  0  0  0  0  0  0
   50.5850   56.2800   21.7480 C   0  0  0  0  0  0  0  0  0  0  0  0
   51.3730   55.1480   21.7710 C   0  0  0  0  0  0  0  0  0  0  0  0
   48.5710   57.5090   20.9500 C   0  0  0  0  0  0  0  0  0  0  0  0
   48.6860   58.3540   21.8150 O   0  0  0  0  0  0  0  0  0  0  0  0
   47.6690   57.6760   19.9630 O   0  0  0  0  0  0  0  0  0  0  0  0
   48.0450   58.5470   18.8640 C   0  0  0  0  0  0  0  0  0  0  0  0
   47.1890   59.7870   18.8890 C   0  0  0  0  0  0  0  0  0  0  0  0
   47.3540   60.7380   17.9490 N   0  0  0  0  0  0  0  0  0  0  0  0
   48.0230   60.6260   17.2570 H   0  0  0  0  0  0  0  0  0  0  0  0
   46.5880   61.8470   17.9710 C   0  0  0  0  0  0  0  0  0  0  0  0
   46.7530   62.7990   17.0320 N   0  0  0  0  0  0  0  0  0  0  0  0
   47.4230   62.6860   16.3400 H   0  0  0  0  0  0  0  0  0  0  0  0
   45.7480   61.9880   18.8390 O   0  0  0  0  0  0  0  0  0  0  0  0
   46.3510   59.9270   19.7540 O   0  0  0  0  0  0  0  0  0  0  0  0
   45.9200   64.0040   17.0560 C   0  0  0  0  0  0  0  0  0  0  0  0
   46.7500   65.1960   16.6490 C   0  0  0  0  0  0  0  0  0  0  0  0
   47.3590   65.2030   15.4890 C   0  0  0  0  0  0  0  0  0  0  0  0
   51.8750   52.8010   21.0660 C   0  0  0  0  0  0  0  0  0  0  0  0
   51.1190   51.6600   20.5470 N   0  0  0  0  0  0  0  0  0  0  0  0
   50.3600   51.3140   21.0430 H   0  0  0  0  0  0  0  0  0  0  0  0
   51.5580   50.9570   19.1140 S   0  0  0  0  0  0  0  0  0  0  0  0
   52.4350   49.8870   19.4390 O   0  0  0  0  0  0  0  0  0  0  0  0
   51.9350   52.0130   18.2410 O   0  0  0  0  0  0  0  0  0  0  0  0
   47.8370   49.0820   17.3460 C   0  0  0  0  0  0  0  0  0  0  0  0
   48.6900   49.8150   16.5420 C   0  0  0  0  0  0  0  0  0  0  0  0
   49.8270   50.3870   17.0820 C   0  0  0  0  0  0  0  0  0  0  0  0
   50.1090   50.2280   18.4260 C   0  0  0  0  0  0  0  0  0  0  0  0
   49.2580   49.4900   19.2280 C   0  0  0  0  0  0  0  0  0  0  0  0
   48.1190   48.9220   18.6890 C   0  0  0  0  0  0  0  0  0  0  0  0
   46.5610   48.7210   15.2500 C   0  0  0  0  0  0  0  0  0  0  0  0
   46.5970   48.4580   16.7560 C   0  0  0  0  0  0  0  0  0  0  0  0
   45.3580   49.0700   17.4110 C   0  0  0  0  0  0  0  0  0  0  0  0
   46.6170   46.9500   17.0110 C   0  0  0  0  0  0  0  0  0  0  0  0
  1 22  1  0  0  0  0
  1  6  2  0  0  0  0
  2  1  1  0  0  0  0
  3  2  2  0  0  0  0
  3  4  1  0  0  0  0
  4  5  2  0  0  0  0
  5  6  1  0  0  0  0
  7  4  1  0  0  0  0
  7  8  2  0  0  0  0
  9  7  1  0  0  0  0
 10 11  1  0  0  0  0
 10  9  1  0  0  0  0
 11 18  2  0  0  0  0
 12 14  1  0  0  0  0
 12 11  1  0  0  0  0
 13 12  1  0  0  0  0
 14 17  2  0  0  0  0
 15 19  1  0  0  0  0
 15 14  1  0  0  0  0
 16 15  1  0  0  0  0
 20 19  1  0  0  0  0
 21 20  2  0  0  0  0
 23 24  1  0  0  0  0
 23 22  1  0  0  0  0
 25 26  2  0  0  0  0
 25 23  1  0  0  0  0
 27 25  2  0  0  0  0
 28 33  2  0  0  0  0
 29 30  2  0  0  0  0
 29 28  1  0  0  0  0
 30 31  1  0  0  0  0
 31 25  1  0  0  0  0
 31 32  2  0  0  0  0
 33 32  1  0  0  0  0
 34 35  1  0  0  0  0
 35 37  1  0  0  0  0
 35 28  1  0  0  0  0
 35 36  1  0  0  0  0
M  END
>  <MODEL>
8

>  <REMARK>
  Name = ZINC09437798
                            x       y       z     vdW  Elec       q    Type
                         _______ _______ _______ _____ _____    ______ ____

>  <TORSDO>
F 11

>  <minimizedAffinity>
-9.1188013735833202

$$$$
ZINC09437798
 OpenBabel10211213203D

 37 38  0  0  0  0  0  0  0  0999 V2000
   48.2630   57.7130   20.6930 C   0  0  0  0  0  0  0  0  0  0  0  0
   48.5440   56.5100   20.0700 C   0  0  0  0  0  0  0  0  0  0  0  0
   49.6380   55.7660   20.4610 C   0  0  0  0  0  0  0  0  0  0  0  0
   50.4620   56.2300   21.4880 C   0  0  0  0  0  0  0  0  0  0  0  0
   50.1720   57.4440   22.1120 C   0  0  0  0  0  0  0  0  0  0  0  0
   49.0750   58.1780   21.7120 C   0  0  0  0  0  0  0  0  0  0  0  0
   51.6350   55.4380   21.9120 C   0  0  0  0  0  0  0  0  0  0  0  0
   52.3320   55.8270   22.8280 O   0  0  0  0  0  0  0  0  0  0  0  0
   51.9330   54.2850   21.2820 O   0  0  0  0  0  0  0  0  0  0  0  0
   51.7760   53.0580   22.0430 C   0  0  0  0  0  0  0  0  0  0  0  0
   51.4690   51.9200   21.1040 C   0  0  0  0  0  0  0  0  0  0  0  0
   50.5440   52.0750   20.1370 N   0  0  0  0  0  0  0  0  0  0  0  0
   50.0750   52.9180   20.0450 H   0  0  0  0  0  0  0  0  0  0  0  0
   50.2700   51.0570   19.2970 C   0  0  0  0  0  0  0  0  0  0  0  0
   49.3440   51.2110   18.3310 N   0  0  0  0  0  0  0  0  0  0  0  0
   48.8750   52.0550   18.2390 H   0  0  0  0  0  0  0  0  0  0  0  0
   50.8580   49.9990   19.4130 O   0  0  0  0  0  0  0  0  0  0  0  0
   52.0570   50.8650   21.2190 O   0  0  0  0  0  0  0  0  0  0  0  0
   49.0470   50.1040   17.4180 C   0  0  0  0  0  0  0  0  0  0  0  0
   47.6400   49.6180   17.6610 C   0  0  0  0  0  0  0  0  0  0  0  0
   47.4180   48.6720   18.5400 C   0  0  0  0  0  0  0  0  0  0  0  0
   47.0650   58.5200   20.2620 C   0  0  0  0  0  0  0  0  0  0  0  0
   47.5120   59.8010   19.7120 N   0  0  0  0  0  0  0  0  0  0  0  0
   48.3760   60.1630   19.9630 H   0  0  0  0  0  0  0  0  0  0  0  0
   46.5420   60.6350   18.6600 S   0  0  0  0  0  0  0  0  0  0  0  0
   47.3060   61.7370   18.1910 O   0  0  0  0  0  0  0  0  0  0  0  0
   45.2870   60.7970   19.3050 O   0  0  0  0  0  0  0  0  0  0  0  0
   45.8240   57.9500   15.0870 C   0  0  0  0  0  0  0  0  0  0  0  0
   44.9750   59.0120   15.3350 C   0  0  0  0  0  0  0  0  0  0  0  0
   45.1940   59.8320   16.4260 C   0  0  0  0  0  0  0  0  0  0  0  0
   46.2620   59.5890   17.2690 C   0  0  0  0  0  0  0  0  0  0  0  0
   47.1150   58.5310   17.0180 C   0  0  0  0  0  0  0  0  0  0  0  0
   46.8930   57.7080   15.9290 C   0  0  0  0  0  0  0  0  0  0  0  0
   46.2780   57.6470   12.6680 C   0  0  0  0  0  0  0  0  0  0  0  0
   45.5850   57.0560   13.8970 C   0  0  0  0  0  0  0  0  0  0  0  0
   44.0820   56.9500   13.6340 C   0  0  0  0  0  0  0  0  0  0  0  0
   46.1520   55.6640   14.1830 C   0  0  0  0  0  0  0  0  0  0  0  0
  1  6  2  0  0  0  0
  2  3  2  0  0  0  0
  2  1  1  0  0  0  0
  3  4  1  0  0  0  0
  4  7  1  0  0  0  0
  4  5  2  0  0  0  0
  6  5  1  0  0  0  0
  7  8  2  0  0  0  0
  9  7  1  0  0  0  0
  9 10  1  0  0  0  0
 11 18  2  0  0  0  0
 11 10  1  0  0  0  0
 12 11  1  0  0  0  0
 13 12  1  0  0  0  0
 14 17  2  0  0  0  0
 14 12  1  0  0  0  0
 15 14  1  0  0  0  0
 16 15  1  0  0  0  0
 19 20  1  0  0  0  0
 19 15  1  0  0  0  0
 20 21  2  0  0  0  0
 22  1  1  0  0  0  0
 23 24  1  0  0  0  0
 23 22  1  0  0  0  0
 25 27  2  0  0  0  0
 25 23  1  0  0  0  0
 26 25  2  0  0  0  0
 28 29  2  0  0  0  0
 28 33  1  0  0  0  0
 29 30  1  0  0  0  0
 30 31  2  0  0  0  0
 31 25  1  0  0  0  0
 32 31  1  0  0  0  0
 33 32  2  0  0  0  0
 34 35  1  0  0  0  0
 35 37  1  0  0  0  0
 35 28  1  0  0  0  0
 36 35  1  0  0  0  0
M  END
>  <MODEL>
9

>  <REMARK>
  Name = ZINC09437798
                            x       y       z     vdW  Elec       q    Type
                         _______ _______ _______ _____ _____    ______ ____

>  <TORSDO>
F 11

>  <minimizedAffinity>
-8.9508551746588321

$$$$
ZINC36571040
 OpenBabel10211213253D

 37 38  0  0  1  0  0  0  0  0999 V2000
   48.1230   49.9990   16.5050 C   0  0  1  0  0  0  0  0  0  0  0  0
   49.0250   49.4330   17.5720 C   0  0  0  0  0  0  0  0  0  0  0  0
   49.7260   50.2620   18.3700 N   0  0  0  0  0  0  0  0  0  0  0  0
   49.6500   51.2220   18.2580 H   0  0  0  0  0  0  0  0  0  0  0  0
   49.1190   48.2320   17.7100 O   0  0  0  0  0  0  0  0  0  0  0  0
   50.6020   49.7110   19.4080 C   0  0  0  0  0  0  0  0  0  0  0  0
   52.2280   50.5090   19.3100 S   0  0  0  0  0  0  0  0  0  0  0  0
   52.5230   50.8610   17.9650 O   0  0  0  0  0  0  0  0  0  0  0  0
   53.1730   49.7920   20.0940 O   0  0  0  0  0  0  0  0  0  0  0  0
   52.0290   52.0490   20.1440 C   0  0  0  0  0  0  0  0  0  0  0  0
   52.2680   53.2340   19.4750 C   0  0  0  0  0  0  0  0  0  0  0  0
   52.1120   54.4410   20.1280 C   0  0  0  0  0  0  0  0  0  0  0  0
   51.7150   54.4640   21.4520 C   0  0  0  0  0  0  0  0  0  0  0  0
   51.5450   55.7810   22.1650 C   0  0  0  0  0  0  0  0  0  0  0  0
   51.4750   53.2780   22.1220 C   0  0  0  0  0  0  0  0  0  0  0  0
   51.6270   52.0710   21.4660 C   0  0  0  0  0  0  0  0  0  0  0  0
   46.9860   49.0980   16.2980 N   0  0  0  0  0  0  0  0  0  0  0  0
   47.0250   48.1790   15.3140 C   0  0  0  0  0  0  0  0  0  0  0  0
   48.0050   48.0970   14.5970 O   0  0  0  0  0  0  0  0  0  0  0  0
   45.8820   47.2740   15.1050 C   0  0  0  0  0  0  0  0  0  0  0  0
   44.8490   47.6320   14.2280 C   0  0  0  0  0  0  0  0  0  0  0  0
   43.7780   46.7730   14.0390 C   0  0  0  0  0  0  0  0  0  0  0  0
   43.7270   45.5660   14.7110 C   0  0  0  0  0  0  0  0  0  0  0  0
   44.7410   45.2040   15.5780 C   0  0  0  0  0  0  0  0  0  0  0  0
   45.8240   46.0460   15.7780 C   0  0  0  0  0  0  0  0  0  0  0  0
   44.8960   48.8160   13.5680 O   0  0  0  0  0  0  0  0  0  0  0  0
   44.9100   49.5900   14.1490 H   0  0  0  0  0  0  0  0  0  0  0  0
   46.8200   45.6830   16.6250 O   0  0  0  0  0  0  0  0  0  0  0  0
   46.7830   46.1230   17.4850 H   0  0  0  0  0  0  0  0  0  0  0  0
   45.8060   49.1980   17.1610 C   0  0  0  0  0  0  0  0  0  0  0  0
   46.0520   48.4220   18.4550 C   0  0  0  0  0  0  0  0  0  0  0  0
   44.8120   47.5960   18.8010 C   0  0  0  0  0  0  0  0  0  0  0  0
   48.1610   52.4400   16.4500 C   0  0  0  0  0  0  0  0  0  0  0  0
   47.6200   51.3510   16.9380 C   0  0  0  0  0  0  0  0  0  0  0  0
   47.6020   53.7910   16.8170 C   0  0  0  0  0  0  0  0  0  0  0  0
   48.6140   54.3230   19.0390 C   0  0  0  0  0  0  0  0  0  0  0  0
   48.6760   54.6090   17.5360 C   0  0  0  0  0  0  0  0  0  0  0  0
  1 17  1  1  0  0  0
  1 34  1  0  0  0  0
  1  2  1  0  0  0  0
  2  5  2  0  0  0  0
  2  3  1  0  0  0  0
  3  6  1  0  0  0  0
  4  3  1  0  0  0  0
  7  6  1  0  0  0  0
  7  9  2  0  0  0  0
  7 10  1  0  0  0  0
  8  7  2  0  0  0  0
 10 16  2  0  0  0  0
 11 12  2  0  0  0  0
 11 10  1  0  0  0  0
 12 13  1  0  0  0  0
 13 15  2  0  0  0  0
 13 14  1  0  0  0  0
 16 15  1  0  0  0  0
 17 30  1  0  0  0  0
 18 17  1  0  0  0  0
 19 18  2  0  0  0  0
 20 18  1  0  0  0  0
 20 25  2  0  0  0  0
 21 20  1  0  0  0  0
 22 21  2  0  0  0  0
 22 23  1  0  0  0  0
 23 24  2  0  0  0  0
 24 25  1  0  0  0  0
 25 28  1  0  0  0  0
 26 27  1  0  0  0  0
 26 21  1  0  0  0  0
 28 29  1  0  0  0  0
 30 31  1  0  0  0  0
 31 32  1  0  0  0  0
 33 35  1  0  0  0  0
 33 34  2  0  0  0  0
 35 37  1  0  0  0  0
 37 36  1  0  0  0  0
M  END
>  <MODEL>
1

>  <REMARK>
  Name = ZINC36571040
                            x       y       z     vdW  Elec       q    Type
                         _______ _______ _______ _____ _____    ______ ____

>  <TORSDO>
F 13

>  <minimizedAffinity>
-8.3001776103125398

$$$$
ZINC36571040
 OpenBabel10211213253D

 37 38  0  0  1  0  0  0  0  0999 V2000
   50.6600   52.9120   18.5040 C   0  0  1  0  0  0  0  0  0  0  0  0
   49.4020   52.6480   17.7170 C   0  0  0  0  0  0  0  0  0  0  0  0
   49.4300   51.8010   16.6690 N   0  0  0  0  0  0  0  0  0  0  0  0
   50.2590   51.3620   16.4220 H   0  0  0  0  0  0  0  0  0  0  0  0
   48.3670   53.1980   18.0260 O   0  0  0  0  0  0  0  0  0  0  0  0
   48.2070   51.5430   15.9040 C   0  0  0  0  0  0  0  0  0  0  0  0
   48.1550   49.7960   15.4200 S   0  0  0  0  0  0  0  0  0  0  0  0
   49.4250   49.1920   15.6230 O   0  0  0  0  0  0  0  0  0  0  0  0
   47.4740   49.6520   14.1810 O   0  0  0  0  0  0  0  0  0  0  0  0
   47.0980   49.0300   16.6040 C   0  0  0  0  0  0  0  0  0  0  0  0
   47.5400   48.8300   17.8980 C   0  0  0  0  0  0  0  0  0  0  0  0
   46.7120   48.2290   18.8280 C   0  0  0  0  0  0  0  0  0  0  0  0
   45.4410   47.8290   18.4630 C   0  0  0  0  0  0  0  0  0  0  0  0
   44.5380   47.1730   19.4760 C   0  0  0  0  0  0  0  0  0  0  0  0
   44.9980   48.0290   17.1680 C   0  0  0  0  0  0  0  0  0  0  0  0
   45.8250   48.6340   16.2400 C   0  0  0  0  0  0  0  0  0  0  0  0
   50.4060   53.9660   19.4900 N   0  0  0  0  0  0  0  0  0  0  0  0
   50.3750   55.2570   19.1050 C   0  0  0  0  0  0  0  0  0  0  0  0
   50.5580   55.5470   17.9380 O   0  0  0  0  0  0  0  0  0  0  0  0
   50.1210   56.3160   20.0950 C   0  0  0  0  0  0  0  0  0  0  0  0
   48.8080   56.6280   20.4770 C   0  0  0  0  0  0  0  0  0  0  0  0
   48.5820   57.6270   21.4100 C   0  0  0  0  0  0  0  0  0  0  0  0
   49.6440   58.3150   21.9650 C   0  0  0  0  0  0  0  0  0  0  0  0
   50.9420   58.0170   21.5960 C   0  0  0  0  0  0  0  0  0  0  0  0
   51.1920   57.0170   20.6680 C   0  0  0  0  0  0  0  0  0  0  0  0
   47.7640   55.9540   19.9330 O   0  0  0  0  0  0  0  0  0  0  0  0
   47.0340   55.7970   20.5490 H   0  0  0  0  0  0  0  0  0  0  0  0
   52.4680   56.7220   20.3130 O   0  0  0  0  0  0  0  0  0  0  0  0
   52.8610   57.3570   19.6980 H   0  0  0  0  0  0  0  0  0  0  0  0
   50.1870   53.6170   20.8960 C   0  0  0  0  0  0  0  0  0  0  0  0
   51.5350   53.4740   21.6040 C   0  0  0  0  0  0  0  0  0  0  0  0
   51.5610   54.3730   22.8410 C   0  0  0  0  0  0  0  0  0  0  0  0
   52.1950   51.0500   18.8720 C   0  0  0  0  0  0  0  0  0  0  0  0
   51.0830   51.6530   19.2140 C   0  0  0  0  0  0  0  0  0  0  0  0
   52.6630   49.8390   19.6380 C   0  0  0  0  0  0  0  0  0  0  0  0
   50.7300   48.4900   20.4660 C   0  0  0  0  0  0  0  0  0  0  0  0
   51.7280   49.5940   20.8240 C   0  0  0  0  0  0  0  0  0  0  0  0
  1  2  1  1  0  0  0
  1 34  1  0  0  0  0
  1 17  1  0  0  0  0
  2  5  2  0  0  0  0
  3  2  1  0  0  0  0
  4  3  1  0  0  0  0
  6  3  1  0  0  0  0
  7  8  2  0  0  0  0
  7  6  1  0  0  0  0
  7 10  1  0  0  0  0
  9  7  2  0  0  0  0
 10 11  1  0  0  0  0
 11 12  2  0  0  0  0
 13 12  1  0  0  0  0
 13 14  1  0  0  0  0
 15 13  2  0  0  0  0
 16 10  2  0  0  0  0
 16 15  1  0  0  0  0
 17 30  1  0  0  0  0
 18 17  1  0  0  0  0
 18 20  1  0  0  0  0
 19 18  2  0  0  0  0
 20 21  2  0  0  0  0
 20 25  1  0  0  0  0
 21 22  1  0  0  0  0
 22 23  2  0  0  0  0
 24 23  1  0  0  0  0
 25 24  2  0  0  0  0
 26 21  1  0  0  0  0
 26 27  1  0  0  0  0
 28 25  1  0  0  0  0
 29 28  1  0  0  0  0
 30 31  1  0  0  0  0
 31 32  1  0  0  0  0
 33 34  2  0  0  0  0
 33 35  1  0  0  0  0
 35 37  1  0  0  0  0
 36 37  1  0  0  0  0
M  END
>  <MODEL>
2

>  <REMARK>
  Name = ZINC36571040
                            x       y       z     vdW  Elec       q    Type
                         _______ _______ _______ _____ _____    ______ ____

>  <TORSDO>
F 13

>  <minimizedAffinity>
-8.1725925043052925

$$$$
ZINC36571040
 OpenBabel10211213253D

 37 38  0  0  1  0  0  0  0  0999 V2000
   48.8990   51.2110   16.7750 C   0  0  1  0  0  0  0  0  0  0  0  0
   49.8340   51.2480   17.9570 C   0  0  0  0  0  0  0  0  0  0  0  0
   49.7210   52.2300   18.8730 N   0  0  0  0  0  0  0  0  0  0  0  0
   49.0390   52.9120   18.7720 H   0  0  0  0  0  0  0  0  0  0  0  0
   50.6860   50.3960   18.0820 O   0  0  0  0  0  0  0  0  0  0  0  0
   50.6300   52.2660   20.0220 C   0  0  0  0  0  0  0  0  0  0  0  0
   51.5530   53.8270   20.0130 S   0  0  0  0  0  0  0  0  0  0  0  0
   52.1030   54.0640   18.7240 O   0  0  0  0  0  0  0  0  0  0  0  0
   52.3650   53.9230   21.1750 O   0  0  0  0  0  0  0  0  0  0  0  0
   50.3290   55.0790   20.2160 C   0  0  0  0  0  0  0  0  0  0  0  0
   49.2520   55.1400   19.3520 C   0  0  0  0  0  0  0  0  0  0  0  0
   48.2920   56.1210   19.5110 C   0  0  0  0  0  0  0  0  0  0  0  0
   48.4090   57.0420   20.5350 C   0  0  0  0  0  0  0  0  0  0  0  0
   47.3620   58.1130   20.7090 C   0  0  0  0  0  0  0  0  0  0  0  0
   49.4860   56.9810   21.4000 C   0  0  0  0  0  0  0  0  0  0  0  0
   50.4430   55.9960   21.2430 C   0  0  0  0  0  0  0  0  0  0  0  0
   48.1680   49.9410   16.7710 N   0  0  0  0  0  0  0  0  0  0  0  0
   48.3260   49.0760   15.7500 C   0  0  0  0  0  0  0  0  0  0  0  0
   49.0760   49.3490   14.8320 O   0  0  0  0  0  0  0  0  0  0  0  0
   47.5910   47.8000   15.7450 C   0  0  0  0  0  0  0  0  0  0  0  0
   46.4530   47.6430   14.9420 C   0  0  0  0  0  0  0  0  0  0  0  0
   45.7690   46.4380   14.9450 C   0  0  0  0  0  0  0  0  0  0  0  0
   46.2050   45.3920   15.7370 C   0  0  0  0  0  0  0  0  0  0  0  0
   47.3260   45.5360   16.5330 C   0  0  0  0  0  0  0  0  0  0  0  0
   48.0290   46.7310   16.5410 C   0  0  0  0  0  0  0  0  0  0  0  0
   46.0220   48.6680   14.1650 O   0  0  0  0  0  0  0  0  0  0  0  0
   46.4490   49.5150   14.3590 H   0  0  0  0  0  0  0  0  0  0  0  0
   49.1320   46.8660   17.3190 O   0  0  0  0  0  0  0  0  0  0  0  0
   49.8790   47.2850   16.8710 H   0  0  0  0  0  0  0  0  0  0  0  0
   47.2640   49.6120   17.8760 C   0  0  0  0  0  0  0  0  0  0  0  0
   45.8210   49.8940   17.4580 C   0  0  0  0  0  0  0  0  0  0  0  0
   44.9310   48.7160   17.8610 C   0  0  0  0  0  0  0  0  0  0  0  0
   48.0880   53.4230   16.1360 C   0  0  0  0  0  0  0  0  0  0  0  0
   47.9200   52.3520   16.8720 C   0  0  0  0  0  0  0  0  0  0  0  0
   47.0640   54.5290   16.1680 C   0  0  0  0  0  0  0  0  0  0  0  0
   46.8750   56.5580   14.7230 C   0  0  0  0  0  0  0  0  0  0  0  0
   47.7280   55.8510   15.7790 C   0  0  0  0  0  0  0  0  0  0  0  0
  1 17  1  1  0  0  0
  1 34  1  0  0  0  0
  1  2  1  0  0  0  0
  2  5  2  0  0  0  0
  2  3  1  0  0  0  0
  3  6  1  0  0  0  0
  4  3  1  0  0  0  0
  7  6  1  0  0  0  0
  7 10  1  0  0  0  0
  7  9  2  0  0  0  0
  8  7  2  0  0  0  0
 10 16  2  0  0  0  0
 11 12  2  0  0  0  0
 11 10  1  0  0  0  0
 12 13  1  0  0  0  0
 13 14  1  0  0  0  0
 13 15  2  0  0  0  0
 16 15  1  0  0  0  0
 17 30  1  0  0  0  0
 18 17  1  0  0  0  0
 19 18  2  0  0  0  0
 20 18  1  0  0  0  0
 20 25  2  0  0  0  0
 21 22  2  0  0  0  0
 21 20  1  0  0  0  0
 22 23  1  0  0  0  0
 23 24  2  0  0  0  0
 24 25  1  0  0  0  0
 25 28  1  0  0  0  0
 26 27  1  0  0  0  0
 26 21  1  0  0  0  0
 29 28  1  0  0  0  0
 31 32  1  0  0  0  0
 31 30  1  0  0  0  0
 33 35  1  0  0  0  0
 33 34  2  0  0  0  0
 36 37  1  0  0  0  0
 37 35  1  0  0  0  0
M  END
>  <MODEL>
3

>  <REMARK>
  Name = ZINC36571040
                            x       y       z     vdW  Elec       q    Type
                         _______ _______ _______ _____ _____    ______ ____

>  <TORSDO>
F 13

>  <minimizedAffinity>
-7.7313763848049293

$$$$
ZINC36571040
 OpenBabel10211213253D

 37 38  0  0  1  0  0  0  0  0999 V2000
   49.2480   52.8870   17.4910 C   0  0  1  0  0  0  0  0  0  0  0  0
   48.0010   53.4870   16.8940 C   0  0  0  0  0  0  0  0  0  0  0  0
   48.0780   54.6330   16.1880 N   0  0  0  0  0  0  0  0  0  0  0  0
   48.9350   55.0710   16.0650 H   0  0  0  0  0  0  0  0  0  0  0  0
   46.9310   52.9400   17.0490 O   0  0  0  0  0  0  0  0  0  0  0  0
   46.8660   55.2170   15.6070 C   0  0  0  0  0  0  0  0  0  0  0  0
   47.2880   56.7610   14.7550 S   0  0  0  0  0  0  0  0  0  0  0  0
   46.4460   56.9440   13.6250 O   0  0  0  0  0  0  0  0  0  0  0  0
   48.6990   56.8840   14.6350 O   0  0  0  0  0  0  0  0  0  0  0  0
   46.8200   58.0390   15.8750 C   0  0  0  0  0  0  0  0  0  0  0  0
   45.7400   58.8510   15.5850 C   0  0  0  0  0  0  0  0  0  0  0  0
   45.3730   59.8540   16.4630 C   0  0  0  0  0  0  0  0  0  0  0  0
   46.0860   60.0440   17.6310 C   0  0  0  0  0  0  0  0  0  0  0  0
   45.6870   61.1370   18.5880 C   0  0  0  0  0  0  0  0  0  0  0  0
   47.1670   59.2310   17.9220 C   0  0  0  0  0  0  0  0  0  0  0  0
   47.5310   58.2260   17.0450 C   0  0  0  0  0  0  0  0  0  0  0  0
   49.6500   53.6640   18.6670 N   0  0  0  0  0  0  0  0  0  0  0  0
   50.9510   53.7440   19.0090 C   0  0  0  0  0  0  0  0  0  0  0  0
   51.7910   53.1710   18.3420 O   0  0  0  0  0  0  0  0  0  0  0  0
   51.3550   54.5240   20.1910 C   0  0  0  0  0  0  0  0  0  0  0  0
   51.1520   54.0110   21.4790 C   0  0  0  0  0  0  0  0  0  0  0  0
   51.5370   54.7540   22.5840 C   0  0  0  0  0  0  0  0  0  0  0  0
   52.1180   55.9970   22.4190 C   0  0  0  0  0  0  0  0  0  0  0  0
   52.3220   56.5130   21.1530 C   0  0  0  0  0  0  0  0  0  0  0  0
   51.9500   55.7840   20.0330 C   0  0  0  0  0  0  0  0  0  0  0  0
   50.5810   52.7920   21.6440 O   0  0  0  0  0  0  0  0  0  0  0  0
   50.7750   52.3780   22.4970 H   0  0  0  0  0  0  0  0  0  0  0  0
   52.1580   56.2910   18.7920 O   0  0  0  0  0  0  0  0  0  0  0  0
   52.9710   56.8070   18.7100 H   0  0  0  0  0  0  0  0  0  0  0  0
   48.6370   54.3530   19.4710 C   0  0  0  0  0  0  0  0  0  0  0  0
   48.6590   55.8470   19.1480 C   0  0  0  0  0  0  0  0  0  0  0  0
   48.3520   56.6480   20.4150 C   0  0  0  0  0  0  0  0  0  0  0  0
   49.3270   50.4760   17.1150 C   0  0  0  0  0  0  0  0  0  0  0  0
   48.9740   51.4630   17.9010 C   0  0  0  0  0  0  0  0  0  0  0  0
   49.1310   49.0490   17.5620 C   0  0  0  0  0  0  0  0  0  0  0  0
   46.9020   48.4650   18.5280 C   0  0  0  0  0  0  0  0  0  0  0  0
   48.2920   49.0260   18.8410 C   0  0  0  0  0  0  0  0  0  0  0  0
  1  2  1  1  0  0  0
  1 34  1  0  0  0  0
  1 17  1  0  0  0  0
  2  5  2  0  0  0  0
  3  2  1  0  0  0  0
  4  3  1  0  0  0  0
  6  3  1  0  0  0  0
  7  6  1  0  0  0  0
  7 10  1  0  0  0  0
  8  7  2  0  0  0  0
  9  7  2  0  0  0  0
 10 16  1  0  0  0  0
 11 10  2  0  0  0  0
 11 12  1  0  0  0  0
 12 13  2  0  0  0  0
 13 15  1  0  0  0  0
 13 14  1  0  0  0  0
 16 15  2  0  0  0  0
 17 18  1  0  0  0  0
 17 30  1  0  0  0  0
 18 20  1  0  0  0  0
 19 18  2  0  0  0  0
 20 21  1  0  0  0  0
 21 26  1  0  0  0  0
 21 22  2  0  0  0  0
 23 22  1  0  0  0  0
 24 23  2  0  0  0  0
 25 20  2  0  0  0  0
 25 24  1  0  0  0  0
 26 27  1  0  0  0  0
 28 25  1  0  0  0  0
 29 28  1  0  0  0  0
 31 30  1  0  0  0  0
 31 32  1  0  0  0  0
 33 35  1  0  0  0  0
 33 34  2  0  0  0  0
 35 37  1  0  0  0  0
 36 37  1  0  0  0  0
M  END
>  <MODEL>
4

>  <REMARK>
  Name = ZINC36571040
                            x       y       z     vdW  Elec       q    Type
                         _______ _______ _______ _____ _____    ______ ____

>  <TORSDO>
F 13

>  <minimizedAffinity>
-7.5595014206862006

$$$$
ZINC36571040
 OpenBabel10211213253D

 37 38  0  0  1  0  0  0  0  0999 V2000
   48.5550   51.1080   16.0180 C   0  0  1  0  0  0  0  0  0  0  0  0
   49.9710   50.7870   16.4200 C   0  0  0  0  0  0  0  0  0  0  0  0
   50.3780   51.0040   17.6860 N   0  0  0  0  0  0  0  0  0  0  0  0
   49.7590   51.3680   18.3390 H   0  0  0  0  0  0  0  0  0  0  0  0
   50.7440   50.3320   15.6040 O   0  0  0  0  0  0  0  0  0  0  0  0
   51.7550   50.6910   18.0770 C   0  0  0  0  0  0  0  0  0  0  0  0
   51.8530   50.5470   19.8820 S   0  0  0  0  0  0  0  0  0  0  0  0
   53.1260   50.0460   20.2670 O   0  0  0  0  0  0  0  0  0  0  0  0
   50.6610   49.9650   20.3920 O   0  0  0  0  0  0  0  0  0  0  0  0
   51.8280   52.2090   20.4710 C   0  0  0  0  0  0  0  0  0  0  0  0
   51.4530   52.4750   21.7740 C   0  0  0  0  0  0  0  0  0  0  0  0
   51.4340   53.7770   22.2360 C   0  0  0  0  0  0  0  0  0  0  0  0
   51.7900   54.8140   21.3950 C   0  0  0  0  0  0  0  0  0  0  0  0
   51.7680   56.2350   21.8980 C   0  0  0  0  0  0  0  0  0  0  0  0
   52.1660   54.5480   20.0910 C   0  0  0  0  0  0  0  0  0  0  0  0
   52.1890   53.2440   19.6310 C   0  0  0  0  0  0  0  0  0  0  0  0
   47.7240   49.9090   16.1550 N   0  0  0  0  0  0  0  0  0  0  0  0
   47.8270   48.9120   15.2540 C   0  0  0  0  0  0  0  0  0  0  0  0
   48.6090   49.0080   14.3270 O   0  0  0  0  0  0  0  0  0  0  0  0
   46.9920   47.7070   15.3900 C   0  0  0  0  0  0  0  0  0  0  0  0
   47.4570   46.6020   16.1160 C   0  0  0  0  0  0  0  0  0  0  0  0
   46.6620   45.4740   16.2380 C   0  0  0  0  0  0  0  0  0  0  0  0
   45.4140   45.4350   15.6450 C   0  0  0  0  0  0  0  0  0  0  0  0
   44.9450   46.5180   14.9260 C   0  0  0  0  0  0  0  0  0  0  0  0
   45.7220   47.6600   14.7970 C   0  0  0  0  0  0  0  0  0  0  0  0
   48.6820   46.6380   16.6980 O   0  0  0  0  0  0  0  0  0  0  0  0
   48.7970   47.3630   17.3280 H   0  0  0  0  0  0  0  0  0  0  0  0
   45.2560   48.7240   14.0960 O   0  0  0  0  0  0  0  0  0  0  0  0
   45.0780   48.5330   13.1640 H   0  0  0  0  0  0  0  0  0  0  0  0
   46.7810   49.7940   17.2700 C   0  0  0  0  0  0  0  0  0  0  0  0
   47.4630   49.0910   18.4450 C   0  0  0  0  0  0  0  0  0  0  0  0
   46.4900   48.0970   19.0810 C   0  0  0  0  0  0  0  0  0  0  0  0
   48.4780   53.4180   16.8070 C   0  0  0  0  0  0  0  0  0  0  0  0
   48.0150   52.1970   16.9090 C   0  0  0  0  0  0  0  0  0  0  0  0
   47.8790   54.5240   17.6370 C   0  0  0  0  0  0  0  0  0  0  0  0
   48.4480   55.4880   19.8700 C   0  0  0  0  0  0  0  0  0  0  0  0
   48.9770   55.1930   18.4650 C   0  0  0  0  0  0  0  0  0  0  0  0
  1 17  1  1  0  0  0
  1  2  1  0  0  0  0
  1 34  1  0  0  0  0
  2  3  1  0  0  0  0
  3  6  1  0  0  0  0
  3  4  1  0  0  0  0
  5  2  2  0  0  0  0
  6  7  1  0  0  0  0
  7  8  2  0  0  0  0
  7  9  2  0  0  0  0
  7 10  1  0  0  0  0
 10 11  2  0  0  0  0
 11 12  1  0  0  0  0
 13 14  1  0  0  0  0
 13 12  2  0  0  0  0
 15 13  1  0  0  0  0
 16 15  2  0  0  0  0
 16 10  1  0  0  0  0
 17 30  1  0  0  0  0
 18 20  1  0  0  0  0
 18 17  1  0  0  0  0
 19 18  2  0  0  0  0
 20 21  2  0  0  0  0
 21 22  1  0  0  0  0
 21 26  1  0  0  0  0
 23 22  2  0  0  0  0
 24 23  1  0  0  0  0
 25 24  2  0  0  0  0
 25 20  1  0  0  0  0
 26 27  1  0  0  0  0
 28 25  1  0  0  0  0
 29 28  1  0  0  0  0
 30 31  1  0  0  0  0
 31 32  1  0  0  0  0
 33 34  2  0  0  0  0
 33 35  1  0  0  0  0
 35 37  1  0  0  0  0
 37 36  1  0  0  0  0
M  END
>  <MODEL>
5

>  <REMARK>
  Name = ZINC36571040
                            x       y       z     vdW  Elec       q    Type
                         _______ _______ _______ _____ _____    ______ ____

>  <TORSDO>
F 13

>  <minimizedAffinity>
-7.5234342748569336

$$$$
ZINC36571040
 OpenBabel10211213253D

 37 38  0  0  1  0  0  0  0  0999 V2000
   50.4490   49.9140   18.5330 C   0  0  1  0  0  0  0  0  0  0  0  0
   50.4200   50.6310   19.8590 C   0  0  0  0  0  0  0  0  0  0  0  0
   50.6260   51.9620   19.9090 N   0  0  0  0  0  0  0  0  0  0  0  0
   50.7930   52.4580   19.0920 H   0  0  0  0  0  0  0  0  0  0  0  0
   50.2110   50.0100   20.8790 O   0  0  0  0  0  0  0  0  0  0  0  0
   50.5980   52.6590   21.1970 C   0  0  0  0  0  0  0  0  0  0  0  0
   51.4830   54.2350   21.0510 S   0  0  0  0  0  0  0  0  0  0  0  0
   52.1970   54.2840   19.8240 O   0  0  0  0  0  0  0  0  0  0  0  0
   52.1290   54.5490   22.2780 O   0  0  0  0  0  0  0  0  0  0  0  0
   50.2190   55.4510   20.8850 C   0  0  0  0  0  0  0  0  0  0  0  0
   49.1480   55.2240   20.0410 C   0  0  0  0  0  0  0  0  0  0  0  0
   48.1560   56.1780   19.9110 C   0  0  0  0  0  0  0  0  0  0  0  0
   48.2350   57.3590   20.6250 C   0  0  0  0  0  0  0  0  0  0  0  0
   47.1540   58.3990   20.4820 C   0  0  0  0  0  0  0  0  0  0  0  0
   49.3060   57.5860   21.4700 C   0  0  0  0  0  0  0  0  0  0  0  0
   50.2950   56.6300   21.6030 C   0  0  0  0  0  0  0  0  0  0  0  0
   49.0810   49.7630   18.0300 N   0  0  0  0  0  0  0  0  0  0  0  0
   48.6060   48.5390   17.7260 C   0  0  0  0  0  0  0  0  0  0  0  0
   49.3140   47.5600   17.8680 O   0  0  0  0  0  0  0  0  0  0  0  0
   47.2320   48.3860   17.2190 C   0  0  0  0  0  0  0  0  0  0  0  0
   46.1740   48.1450   18.1070 C   0  0  0  0  0  0  0  0  0  0  0  0
   44.8850   48.0040   17.6180 C   0  0  0  0  0  0  0  0  0  0  0  0
   44.6400   48.0990   16.2610 C   0  0  0  0  0  0  0  0  0  0  0  0
   45.6760   48.3360   15.3770 C   0  0  0  0  0  0  0  0  0  0  0  0
   46.9730   48.4870   15.8440 C   0  0  0  0  0  0  0  0  0  0  0  0
   46.4120   48.0500   19.4390 O   0  0  0  0  0  0  0  0  0  0  0  0
   46.7390   47.1840   19.7190 H   0  0  0  0  0  0  0  0  0  0  0  0
   47.9860   48.7260   14.9750 O   0  0  0  0  0  0  0  0  0  0  0  0
   48.6720   48.0440   14.9730 H   0  0  0  0  0  0  0  0  0  0  0  0
   48.2290   50.9420   17.8570 C   0  0  0  0  0  0  0  0  0  0  0  0
   48.6440   51.6910   16.5910 C   0  0  0  0  0  0  0  0  0  0  0  0
   48.0830   53.1140   16.6310 C   0  0  0  0  0  0  0  0  0  0  0  0
   52.3920   50.2360   17.0920 C   0  0  0  0  0  0  0  0  0  0  0  0
   51.2600   50.7130   17.5470 C   0  0  0  0  0  0  0  0  0  0  0  0
   53.1620   50.9950   16.0410 C   0  0  0  0  0  0  0  0  0  0  0  0
   51.6460   49.8450   14.4230 C   0  0  0  0  0  0  0  0  0  0  0  0
   53.0960   50.2380   14.7140 C   0  0  0  0  0  0  0  0  0  0  0  0
  1 34  1  6  0  0  0
  1  2  1  0  0  0  0
  2  3  1  0  0  0  0
  2  5  2  0  0  0  0
  3  6  1  0  0  0  0
  4  3  1  0  0  0  0
  7  6  1  0  0  0  0
  7  9  2  0  0  0  0
  8  7  2  0  0  0  0
 10  7  1  0  0  0  0
 10 16  2  0  0  0  0
 11 10  1  0  0  0  0
 12 11  2  0  0  0  0
 12 13  1  0  0  0  0
 13 15  2  0  0  0  0
 14 13  1  0  0  0  0
 15 16  1  0  0  0  0
 17  1  1  0  0  0  0
 18 19  2  0  0  0  0
 18 17  1  0  0  0  0
 20 18  1  0  0  0  0
 20 21  2  0  0  0  0
 21 26  1  0  0  0  0
 22 21  1  0  0  0  0
 23 22  2  0  0  0  0
 24 25  2  0  0  0  0
 24 23  1  0  0  0  0
 25 20  1  0  0  0  0
 26 27  1  0  0  0  0
 28 25  1  0  0  0  0
 29 28  1  0  0  0  0
 30 17  1  0  0  0  0
 31 32  1  0  0  0  0
 31 30  1  0  0  0  0
 33 34  2  0  0  0  0
 35 33  1  0  0  0  0
 36 37  1  0  0  0  0
 37 35  1  0  0  0  0
M  END
>  <MODEL>
6

>  <REMARK>
  Name = ZINC36571040
                            x       y       z     vdW  Elec       q    Type
                         _______ _______ _______ _____ _____    ______ ____

>  <TORSDO>
F 13

>  <minimizedAffinity>
-7.4993898075740084

$$$$
ZINC36571040
 OpenBabel10211213253D

 37 38  0  0  1  0  0  0  0  0999 V2000
   49.3130   52.8620   17.4880 C   0  0  1  0  0  0  0  0  0  0  0  0
   48.0810   53.4560   16.8550 C   0  0  0  0  0  0  0  0  0  0  0  0
   48.1590   54.6340   16.2040 N   0  0  0  0  0  0  0  0  0  0  0  0
   49.0080   55.0990   16.1430 H   0  0  0  0  0  0  0  0  0  0  0  0
   47.0200   52.8740   16.9310 O   0  0  0  0  0  0  0  0  0  0  0  0
   46.9610   55.2110   15.5880 C   0  0  0  0  0  0  0  0  0  0  0  0
   47.3800   56.8040   14.8300 S   0  0  0  0  0  0  0  0  0  0  0  0
   48.7470   56.8180   14.4400 O   0  0  0  0  0  0  0  0  0  0  0  0
   46.8340   57.8690   15.5960 O   0  0  0  0  0  0  0  0  0  0  0  0
   46.4810   56.8350   13.3140 C   0  0  0  0  0  0  0  0  0  0  0  0
   47.1090   57.2230   12.1450 C   0  0  0  0  0  0  0  0  0  0  0  0
   46.4040   57.2470   10.9570 C   0  0  0  0  0  0  0  0  0  0  0  0
   45.0720   56.8830   10.9360 C   0  0  0  0  0  0  0  0  0  0  0  0
   44.3020   56.9090    9.6400 C   0  0  0  0  0  0  0  0  0  0  0  0
   44.4430   56.4930   12.1050 C   0  0  0  0  0  0  0  0  0  0  0  0
   45.1490   56.4650   13.2930 C   0  0  0  0  0  0  0  0  0  0  0  0
   49.6790   53.6450   18.6710 N   0  0  0  0  0  0  0  0  0  0  0  0
   50.9750   53.7820   19.0140 C   0  0  0  0  0  0  0  0  0  0  0  0
   51.8410   53.2560   18.3410 O   0  0  0  0  0  0  0  0  0  0  0  0
   51.3430   54.5680   20.2040 C   0  0  0  0  0  0  0  0  0  0  0  0
   51.8400   55.8710   20.0650 C   0  0  0  0  0  0  0  0  0  0  0  0
   52.1830   56.6010   21.1920 C   0  0  0  0  0  0  0  0  0  0  0  0
   52.0370   56.0480   22.4500 C   0  0  0  0  0  0  0  0  0  0  0  0
   51.5490   54.7630   22.5990 C   0  0  0  0  0  0  0  0  0  0  0  0
   51.1940   54.0170   21.4850 C   0  0  0  0  0  0  0  0  0  0  0  0
   51.9860   56.4150   18.8310 O   0  0  0  0  0  0  0  0  0  0  0  0
   52.8520   56.8200   18.6790 H   0  0  0  0  0  0  0  0  0  0  0  0
   50.7080   52.7600   21.6350 O   0  0  0  0  0  0  0  0  0  0  0  0
   49.8710   52.7170   22.1180 H   0  0  0  0  0  0  0  0  0  0  0  0
   48.6360   54.2780   19.4830 C   0  0  0  0  0  0  0  0  0  0  0  0
   48.5640   55.7680   19.1510 C   0  0  0  0  0  0  0  0  0  0  0  0
   48.0640   56.5410   20.3730 C   0  0  0  0  0  0  0  0  0  0  0  0
   49.8600   50.8110   18.6930 C   0  0  0  0  0  0  0  0  0  0  0  0
   49.0330   51.4390   17.8940 C   0  0  0  0  0  0  0  0  0  0  0  0
   49.5380   49.4180   19.1690 C   0  0  0  0  0  0  0  0  0  0  0  0
   47.2400   48.4820   18.8760 C   0  0  0  0  0  0  0  0  0  0  0  0
   48.5770   48.7520   18.1820 C   0  0  0  0  0  0  0  0  0  0  0  0
  1  2  1  1  0  0  0
  1 34  1  0  0  0  0
  1 17  1  0  0  0  0
  2  5  2  0  0  0  0
  3  2  1  0  0  0  0
  4  3  1  0  0  0  0
  6  3  1  0  0  0  0
  7  6  1  0  0  0  0
  7  9  2  0  0  0  0
  8  7  2  0  0  0  0
 10  7  1  0  0  0  0
 11 10  2  0  0  0  0
 12 11  1  0  0  0  0
 13 12  2  0  0  0  0
 13 15  1  0  0  0  0
 14 13  1  0  0  0  0
 15 16  2  0  0  0  0
 16 10  1  0  0  0  0
 17 18  1  0  0  0  0
 17 30  1  0  0  0  0
 18 20  1  0  0  0  0
 19 18  2  0  0  0  0
 20 25  1  0  0  0  0
 21 20  2  0  0  0  0
 21 22  1  0  0  0  0
 22 23  2  0  0  0  0
 23 24  1  0  0  0  0
 25 28  1  0  0  0  0
 25 24  2  0  0  0  0
 26 21  1  0  0  0  0
 27 26  1  0  0  0  0
 28 29  1  0  0  0  0
 31 30  1  0  0  0  0
 31 32  1  0  0  0  0
 33 35  1  0  0  0  0
 34 33  2  0  0  0  0
 37 36  1  0  0  0  0
 37 35  1  0  0  0  0
M  END
>  <MODEL>
7

>  <REMARK>
  Name = ZINC36571040
                            x       y       z     vdW  Elec       q    Type
                         _______ _______ _______ _____ _____    ______ ____

>  <TORSDO>
F 13

>  <minimizedAffinity>
-7.137737421272571

$$$$
ZINC36571040
 OpenBabel10211213253D

 37 38  0  0  1  0  0  0  0  0999 V2000
   48.6240   55.2010   20.1040 C   0  0  1  0  0  0  0  0  0  0  0  0
   48.8030   54.4810   18.7920 C   0  0  0  0  0  0  0  0  0  0  0  0
   49.3240   53.2380   18.7720 N   0  0  0  0  0  0  0  0  0  0  0  0
   49.5830   52.8080   19.6020 H   0  0  0  0  0  0  0  0  0  0  0  0
   48.4790   55.0210   17.7560 O   0  0  0  0  0  0  0  0  0  0  0  0
   49.4970   52.5380   17.4970 C   0  0  0  0  0  0  0  0  0  0  0  0
   49.8790   50.7940   17.8130 S   0  0  0  0  0  0  0  0  0  0  0  0
   50.4230   50.6390   19.1160 O   0  0  0  0  0  0  0  0  0  0  0  0
   50.5280   50.2220   16.6850 O   0  0  0  0  0  0  0  0  0  0  0  0
   48.3110   49.9920   17.8820 C   0  0  0  0  0  0  0  0  0  0  0  0
   47.2690   50.4420   17.0930 C   0  0  0  0  0  0  0  0  0  0  0  0
   46.0400   49.8130   17.1470 C   0  0  0  0  0  0  0  0  0  0  0  0
   45.8520   48.7340   17.9890 C   0  0  0  0  0  0  0  0  0  0  0  0
   44.5110   48.0480   18.0490 C   0  0  0  0  0  0  0  0  0  0  0  0
   46.8940   48.2830   18.7780 C   0  0  0  0  0  0  0  0  0  0  0  0
   48.1250   48.9090   18.7210 C   0  0  0  0  0  0  0  0  0  0  0  0
   49.9280   55.6550   20.5940 N   0  0  0  0  0  0  0  0  0  0  0  0
   50.5690   56.6630   19.9700 C   0  0  0  0  0  0  0  0  0  0  0  0
   50.0640   57.1970   19.0000 O   0  0  0  0  0  0  0  0  0  0  0  0
   51.8800   57.1190   20.4620 C   0  0  0  0  0  0  0  0  0  0  0  0
   51.9590   58.0390   21.5170 C   0  0  0  0  0  0  0  0  0  0  0  0
   53.1990   58.4600   21.9710 C   0  0  0  0  0  0  0  0  0  0  0  0
   54.3550   57.9770   21.3870 C   0  0  0  0  0  0  0  0  0  0  0  0
   54.2880   57.0700   20.3460 C   0  0  0  0  0  0  0  0  0  0  0  0
   53.0590   56.6310   19.8800 C   0  0  0  0  0  0  0  0  0  0  0  0
   50.8260   58.5150   22.0900 O   0  0  0  0  0  0  0  0  0  0  0  0
   50.0350   57.9960   21.8880 H   0  0  0  0  0  0  0  0  0  0  0  0
   52.9980   55.7360   18.8620 O   0  0  0  0  0  0  0  0  0  0  0  0
   53.8180   55.2430   18.7220 H   0  0  0  0  0  0  0  0  0  0  0  0
   50.5360   55.0120   21.7620 C   0  0  0  0  0  0  0  0  0  0  0  0
   51.3720   53.8150   21.3080 C   0  0  0  0  0  0  0  0  0  0  0  0
   50.8600   52.5450   21.9900 C   0  0  0  0  0  0  0  0  0  0  0  0
   47.6770   57.3380   20.8100 C   0  0  0  0  0  0  0  0  0  0  0  0
   47.7210   56.3900   19.9060 C   0  0  0  0  0  0  0  0  0  0  0  0
   46.8390   58.5680   20.5730 C   0  0  0  0  0  0  0  0  0  0  0  0
   46.6860   60.6950   19.2710 C   0  0  0  0  0  0  0  0  0  0  0  0
   47.4010   59.3460   19.3820 C   0  0  0  0  0  0  0  0  0  0  0  0
  1  2  1  6  0  0  0
  1 17  1  0  0  0  0
  3  2  1  0  0  0  0
  3  4  1  0  0  0  0
  5  2  2  0  0  0  0
  6  7  1  0  0  0  0
  6  3  1  0  0  0  0
  7 10  1  0  0  0  0
  7  8  2  0  0  0  0
  9  7  2  0  0  0  0
 10 16  2  0  0  0  0
 11 12  2  0  0  0  0
 11 10  1  0  0  0  0
 12 13  1  0  0  0  0
 13 14  1  0  0  0  0
 13 15  2  0  0  0  0
 16 15  1  0  0  0  0
 17 30  1  0  0  0  0
 18 20  1  0  0  0  0
 18 17  1  0  0  0  0
 19 18  2  0  0  0  0
 20 21  2  0  0  0  0
 21 22  1  0  0  0  0
 21 26  1  0  0  0  0
 23 22  2  0  0  0  0
 24 23  1  0  0  0  0
 25 24  2  0  0  0  0
 25 20  1  0  0  0  0
 27 26  1  0  0  0  0
 28 25  1  0  0  0  0
 29 28  1  0  0  0  0
 31 30  1  0  0  0  0
 31 32  1  0  0  0  0
 34  1  1  0  0  0  0
 34 33  2  0  0  0  0
 35 33  1  0  0  0  0
 36 37  1  0  0  0  0
 37 35  1  0  0  0  0
M  END
>  <MODEL>
8

>  <REMARK>
  Name = ZINC36571040
                            x       y       z     vdW  Elec       q    Type
                         _______ _______ _______ _____ _____    ______ ____

>  <TORSDO>
F 13

>  <minimizedAffinity>
-6.9982449844507224

$$$$
ZINC36571040
 OpenBabel10211213253D

 37 38  0  0  1  0  0  0  0  0999 V2000
   48.3380   53.5170   17.9850 C   0  0  1  0  0  0  0  0  0  0  0  0
   48.9550   52.1560   17.7890 C   0  0  0  0  0  0  0  0  0  0  0  0
   49.3870   51.7830   16.5680 N   0  0  0  0  0  0  0  0  0  0  0  0
   49.3020   52.3900   15.8170 H   0  0  0  0  0  0  0  0  0  0  0  0
   49.0610   51.3980   18.7290 O   0  0  0  0  0  0  0  0  0  0  0  0
   49.9870   50.4600   16.3780 C   0  0  0  0  0  0  0  0  0  0  0  0
   48.9080   49.4530   15.3240 S   0  0  0  0  0  0  0  0  0  0  0  0
   49.5780   48.2640   14.9280 O   0  0  0  0  0  0  0  0  0  0  0  0
   48.2590   50.2730   14.3620 O   0  0  0  0  0  0  0  0  0  0  0  0
   47.6150   48.9060   16.3920 C   0  0  0  0  0  0  0  0  0  0  0  0
   47.8970   48.5680   17.7020 C   0  0  0  0  0  0  0  0  0  0  0  0
   46.8850   48.1400   18.5390 C   0  0  0  0  0  0  0  0  0  0  0  0
   45.5900   48.0490   18.0660 C   0  0  0  0  0  0  0  0  0  0  0  0
   44.4850   47.5810   18.9780 C   0  0  0  0  0  0  0  0  0  0  0  0
   45.3070   48.3880   16.7550 C   0  0  0  0  0  0  0  0  0  0  0  0
   46.3190   48.8200   15.9190 C   0  0  0  0  0  0  0  0  0  0  0  0
   49.0130   54.2040   19.0900 N   0  0  0  0  0  0  0  0  0  0  0  0
   50.3530   54.1340   19.2090 C   0  0  0  0  0  0  0  0  0  0  0  0
   51.0030   53.5000   18.4000 O   0  0  0  0  0  0  0  0  0  0  0  0
   51.0310   54.8240   20.3200 C   0  0  0  0  0  0  0  0  0  0  0  0
   51.0620   54.2460   21.5970 C   0  0  0  0  0  0  0  0  0  0  0  0
   51.7030   54.9040   22.6340 C   0  0  0  0  0  0  0  0  0  0  0  0
   52.3110   56.1260   22.4130 C   0  0  0  0  0  0  0  0  0  0  0  0
   52.2850   56.7050   21.1580 C   0  0  0  0  0  0  0  0  0  0  0  0
   51.6550   56.0610   20.1050 C   0  0  0  0  0  0  0  0  0  0  0  0
   50.4660   53.0480   21.8160 O   0  0  0  0  0  0  0  0  0  0  0  0
   49.6270   53.1070   22.2950 H   0  0  0  0  0  0  0  0  0  0  0  0
   51.6380   56.6290   18.8730 O   0  0  0  0  0  0  0  0  0  0  0  0
   50.7580   56.6740   18.4730 H   0  0  0  0  0  0  0  0  0  0  0  0
   48.2300   54.9670   20.0650 C   0  0  0  0  0  0  0  0  0  0  0  0
   48.1470   56.4290   19.6240 C   0  0  0  0  0  0  0  0  0  0  0  0
   48.2920   57.3410   20.8440 C   0  0  0  0  0  0  0  0  0  0  0  0
   47.6160   55.2550   16.4300 C   0  0  0  0  0  0  0  0  0  0  0  0
   48.4910   54.3250   16.7230 C   0  0  0  0  0  0  0  0  0  0  0  0
   47.8150   56.1220   15.2130 C   0  0  0  0  0  0  0  0  0  0  0  0
   46.8980   58.0780   16.4670 C   0  0  0  0  0  0  0  0  0  0  0  0
   46.7630   57.2320   15.1990 C   0  0  0  0  0  0  0  0  0  0  0  0
  1 34  1  6  0  0  0
  1 17  1  0  0  0  0
  2  1  1  0  0  0  0
  2  5  2  0  0  0  0
  3  2  1  0  0  0  0
  4  3  1  0  0  0  0
  6  3  1  0  0  0  0
  7  6  1  0  0  0  0
  7 10  1  0  0  0  0
  8  7  2  0  0  0  0
  9  7  2  0  0  0  0
 10 11  1  0  0  0  0
 11 12  2  0  0  0  0
 13 12  1  0  0  0  0
 13 14  1  0  0  0  0
 15 13  2  0  0  0  0
 16 10  2  0  0  0  0
 16 15  1  0  0  0  0
 17 18  1  0  0  0  0
 17 30  1  0  0  0  0
 18 20  1  0  0  0  0
 19 18  2  0  0  0  0
 20 21  1  0  0  0  0
 21 26  1  0  0  0  0
 21 22  2  0  0  0  0
 23 22  1  0  0  0  0
 24 23  2  0  0  0  0
 25 20  2  0  0  0  0
 25 24  1  0  0  0  0
 26 27  1  0  0  0  0
 28 25  1  0  0  0  0
 29 28  1  0  0  0  0
 31 30  1  0  0  0  0
 31 32  1  0  0  0  0
 33 34  2  0  0  0  0
 35 33  1  0  0  0  0
 37 35  1  0  0  0  0
 37 36  1  0  0  0  0
M  END
>  <MODEL>
9

>  <REMARK>
  Name = ZINC36571040
                            x       y       z     vdW  Elec       q    Type
                         _______ _______ _______ _____ _____    ______ ____

>  <TORSDO>
F 13

>  <minimizedAffinity>
-6.9652745371495648

$$$$
ZINC18343402
 OpenBabel10211213283D

 36 37  0  0  1  0  0  0  0  0999 V2000
   50.9250   51.0690   19.1270 C   0  0  1  0  0  0  0  0  0  0  0  0
   50.0190   50.1890   18.3870 N   0  0  0  0  0  0  0  0  0  0  0  0
   50.2080   49.2390   18.3240 H   0  0  0  0  0  0  0  0  0  0  0  0
   48.9220   50.6980   17.7910 C   0  0  0  0  0  0  0  0  0  0  0  0
   48.6850   51.8870   17.8700 O   0  0  0  0  0  0  0  0  0  0  0  0
   48.0060   49.8100   17.0440 C   0  0  0  0  0  0  0  0  0  0  0  0
   48.5140   48.9170   16.0980 C   0  0  0  0  0  0  0  0  0  0  0  0
   47.6550   48.0880   15.4060 C   0  0  0  0  0  0  0  0  0  0  0  0
   46.2930   48.1480   15.6410 C   0  0  0  0  0  0  0  0  0  0  0  0
   45.7830   49.0340   16.5740 C   0  0  0  0  0  0  0  0  0  0  0  0
   46.6310   49.8640   17.2750 C   0  0  0  0  0  0  0  0  0  0  0  0
   45.3600   47.2420   14.8780 C   0  0  0  0  0  0  0  0  0  0  0  0
   45.5970   47.4150   13.3760 C   0  0  0  0  0  0  0  0  0  0  0  0
   43.9120   47.6030   15.2100 C   0  0  0  0  0  0  0  0  0  0  0  0
   45.6270   45.7880   15.2720 C   0  0  0  0  0  0  0  0  0  0  0  0
   51.6870   51.2700   21.4990 C   0  0  0  0  0  0  0  0  0  0  0  0
   51.5130   50.3110   20.3190 C   0  0  0  0  0  0  0  0  0  0  0  0
   50.5650   49.1770   20.7190 C   0  0  0  0  0  0  0  0  0  0  0  0
   52.0400   51.5190   18.2190 C   0  0  0  0  0  0  0  0  0  0  0  0
   52.7580   50.7020   17.6930 O   0  0  0  0  0  0  0  0  0  0  0  0
   52.2370   52.8280   17.9950 O   0  0  0  0  0  0  0  0  0  0  0  0
   52.8050   53.6060   19.0820 C   0  0  0  0  0  0  0  0  0  0  0  0
   52.0020   54.8670   19.2690 C   0  0  0  0  0  0  0  0  0  0  0  0
   50.6720   54.8570   19.0530 N   0  0  0  0  0  0  0  0  0  0  0  0
   50.2310   54.0380   18.7780 H   0  0  0  0  0  0  0  0  0  0  0  0
   52.5530   55.8910   19.6140 O   0  0  0  0  0  0  0  0  0  0  0  0
   49.9260   56.0300   19.2280 N   0  0  0  0  0  0  0  0  0  0  0  0
   50.1500   56.6470   19.9420 H   0  0  0  0  0  0  0  0  0  0  0  0
   48.8960   56.3030   18.4020 C   0  0  0  0  0  0  0  0  0  0  0  0
   48.6140   55.5310   17.5060 O   0  0  0  0  0  0  0  0  0  0  0  0
   48.1080   57.5400   18.5860 C   0  0  0  0  0  0  0  0  0  0  0  0
   47.9080   58.0600   19.8660 C   0  0  0  0  0  0  0  0  0  0  0  0
   47.1770   59.2180   20.0310 C   0  0  0  0  0  0  0  0  0  0  0  0
   46.6330   59.8590   18.9320 C   0  0  0  0  0  0  0  0  0  0  0  0
   46.8240   59.3460   17.6600 C   0  0  0  0  0  0  0  0  0  0  0  0
   47.5580   58.1920   17.4820 C   0  0  0  0  0  0  0  0  0  0  0  0
  1 19  1  6  0  0  0
  1 17  1  0  0  0  0
  2  1  1  0  0  0  0
  3  2  1  0  0  0  0
  4  5  2  0  0  0  0
  4  2  1  0  0  0  0
  6 11  1  0  0  0  0
  6  4  1  0  0  0  0
  7  6  2  0  0  0  0
  8  9  2  0  0  0  0
  8  7  1  0  0  0  0
  9 10  1  0  0  0  0
 10 11  2  0  0  0  0
 12 14  1  0  0  0  0
 12 15  1  0  0  0  0
 12  9  1  0  0  0  0
 13 12  1  0  0  0  0
 17 18  1  0  0  0  0
 17 16  1  0  0  0  0
 20 19  2  0  0  0  0
 21 19  1  0  0  0  0
 21 22  1  0  0  0  0
 22 23  1  0  0  0  0
 23 26  2  0  0  0  0
 24 27  1  0  0  0  0
 24 23  1  0  0  0  0
 25 24  1  0  0  0  0
 27 28  1  0  0  0  0
 29 31  1  0  0  0  0
 29 27  1  0  0  0  0
 30 29  2  0  0  0  0
 31 32  2  0  0  0  0
 32 33  1  0  0  0  0
 34 33  2  0  0  0  0
 35 34  1  0  0  0  0
 36 35  2  0  0  0  0
 36 31  1  0  0  0  0
M  END
>  <MODEL>
1

>  <REMARK>
  Name = ZINC18343402
                            x       y       z     vdW  Elec       q    Type
                         _______ _______ _______ _____ _____    ______ ____

>  <TORSDO>
F 10

>  <minimizedAffinity>
-8.8941710566039234

$$$$
ZINC18343402
 OpenBabel10211213283D

 36 37  0  0  1  0  0  0  0  0999 V2000
   50.2600   49.6350   17.9390 C   0  0  1  0  0  0  0  0  0  0  0  0
   50.3240   50.9550   18.5720 N   0  0  0  0  0  0  0  0  0  0  0  0
   49.5070   51.4150   18.8190 H   0  0  0  0  0  0  0  0  0  0  0  0
   51.5200   51.5300   18.8100 C   0  0  0  0  0  0  0  0  0  0  0  0
   52.5440   50.9530   18.5010 O   0  0  0  0  0  0  0  0  0  0  0  0
   51.5860   52.8620   19.4480 C   0  0  0  0  0  0  0  0  0  0  0  0
   52.4410   53.8410   18.9390 C   0  0  0  0  0  0  0  0  0  0  0  0
   52.4950   55.0830   19.5360 C   0  0  0  0  0  0  0  0  0  0  0  0
   51.7110   55.3560   20.6440 C   0  0  0  0  0  0  0  0  0  0  0  0
   50.8650   54.3890   21.1560 C   0  0  0  0  0  0  0  0  0  0  0  0
   50.7980   53.1440   20.5650 C   0  0  0  0  0  0  0  0  0  0  0  0
   51.7790   56.7140   21.2940 C   0  0  0  0  0  0  0  0  0  0  0  0
   51.2770   57.7760   20.3120 C   0  0  0  0  0  0  0  0  0  0  0  0
   53.2270   57.0230   21.6810 C   0  0  0  0  0  0  0  0  0  0  0  0
   50.9020   56.7240   22.5480 C   0  0  0  0  0  0  0  0  0  0  0  0
   49.9520   48.7630   20.2610 C   0  0  0  0  0  0  0  0  0  0  0  0
   49.4430   48.6870   18.8190 C   0  0  0  0  0  0  0  0  0  0  0  0
   47.9690   49.0950   18.7770 C   0  0  0  0  0  0  0  0  0  0  0  0
   49.6020   49.7580   16.5880 C   0  0  0  0  0  0  0  0  0  0  0  0
   49.1970   48.7710   16.0220 O   0  0  0  0  0  0  0  0  0  0  0  0
   49.4660   50.9640   16.0150 O   0  0  0  0  0  0  0  0  0  0  0  0
   48.1130   51.4530   15.8200 C   0  0  0  0  0  0  0  0  0  0  0  0
   47.8280   52.5520   16.8110 C   0  0  0  0  0  0  0  0  0  0  0  0
   48.7850   53.4520   17.1120 N   0  0  0  0  0  0  0  0  0  0  0  0
   49.6570   53.3930   16.6900 H   0  0  0  0  0  0  0  0  0  0  0  0
   46.7380   52.6260   17.3380 O   0  0  0  0  0  0  0  0  0  0  0  0
   48.5200   54.4740   18.0330 N   0  0  0  0  0  0  0  0  0  0  0  0
   48.4740   54.2730   18.9810 H   0  0  0  0  0  0  0  0  0  0  0  0
   48.3320   55.7370   17.6030 C   0  0  0  0  0  0  0  0  0  0  0  0
   48.3910   55.9900   16.4150 O   0  0  0  0  0  0  0  0  0  0  0  0
   48.0540   56.8150   18.5750 C   0  0  0  0  0  0  0  0  0  0  0  0
   47.7820   58.1090   18.1280 C   0  0  0  0  0  0  0  0  0  0  0  0
   47.5170   59.1100   19.0400 C   0  0  0  0  0  0  0  0  0  0  0  0
   47.5320   58.8360   20.3950 C   0  0  0  0  0  0  0  0  0  0  0  0
   47.8060   57.5560   20.8470 C   0  0  0  0  0  0  0  0  0  0  0  0
   48.0660   56.5460   19.9440 C   0  0  0  0  0  0  0  0  0  0  0  0
  1 19  1  1  0  0  0
  1  2  1  0  0  0  0
  1 17  1  0  0  0  0
  2  4  1  0  0  0  0
  2  3  1  0  0  0  0
  4  6  1  0  0  0  0
  5  4  2  0  0  0  0
  6 11  1  0  0  0  0
  7  6  2  0  0  0  0
  7  8  1  0  0  0  0
  8  9  2  0  0  0  0
  9 10  1  0  0  0  0
  9 12  1  0  0  0  0
 11 10  2  0  0  0  0
 12 14  1  0  0  0  0
 12 15  1  0  0  0  0
 13 12  1  0  0  0  0
 17 16  1  0  0  0  0
 18 17  1  0  0  0  0
 20 19  2  0  0  0  0
 21 19  1  0  0  0  0
 22 21  1  0  0  0  0
 22 23  1  0  0  0  0
 23 24  1  0  0  0  0
 23 26  2  0  0  0  0
 24 27  1  0  0  0  0
 25 24  1  0  0  0  0
 27 28  1  0  0  0  0
 29 27  1  0  0  0  0
 29 31  1  0  0  0  0
 30 29  2  0  0  0  0
 31 36  1  0  0  0  0
 32 31  2  0  0  0  0
 32 33  1  0  0  0  0
 33 34  2  0  0  0  0
 34 35  1  0  0  0  0
 36 35  2  0  0  0  0
M  END
>  <MODEL>
2

>  <REMARK>
  Name = ZINC18343402
                            x       y       z     vdW  Elec       q    Type
                         _______ _______ _______ _____ _____    ______ ____

>  <TORSDO>
F 10

>  <minimizedAffinity>
-8.8091851855205903

$$$$
ZINC18343402
 OpenBabel10211213283D

 36 37  0  0  1  0  0  0  0  0999 V2000
   49.4290   50.0330   18.7280 C   0  0  1  0  0  0  0  0  0  0  0  0
   48.9200   51.1440   17.9210 N   0  0  0  0  0  0  0  0  0  0  0  0
   48.4790   50.9680   17.0750 H   0  0  0  0  0  0  0  0  0  0  0  0
   49.0640   52.4130   18.3540 C   0  0  0  0  0  0  0  0  0  0  0  0
   49.6160   52.6330   19.4150 O   0  0  0  0  0  0  0  0  0  0  0  0
   48.5510   53.5350   17.5400 C   0  0  0  0  0  0  0  0  0  0  0  0
   47.7890   53.2810   16.3990 C   0  0  0  0  0  0  0  0  0  0  0  0
   47.3100   54.3330   15.6450 C   0  0  0  0  0  0  0  0  0  0  0  0
   47.5920   55.6370   16.0140 C   0  0  0  0  0  0  0  0  0  0  0  0
   48.3500   55.8950   17.1430 C   0  0  0  0  0  0  0  0  0  0  0  0
   48.8310   54.8520   17.9070 C   0  0  0  0  0  0  0  0  0  0  0  0
   47.0680   56.7810   15.1840 C   0  0  0  0  0  0  0  0  0  0  0  0
   45.7090   56.4010   14.5920 C   0  0  0  0  0  0  0  0  0  0  0  0
   48.0510   57.0800   14.0510 C   0  0  0  0  0  0  0  0  0  0  0  0
   46.9130   58.0210   16.0660 C   0  0  0  0  0  0  0  0  0  0  0  0
   47.3240   48.6860   18.7850 C   0  0  0  0  0  0  0  0  0  0  0  0
   48.7670   48.7290   18.2760 C   0  0  0  0  0  0  0  0  0  0  0  0
   48.7710   48.6600   16.7470 C   0  0  0  0  0  0  0  0  0  0  0  0
   50.9220   49.9260   18.5510 C   0  0  0  0  0  0  0  0  0  0  0  0
   51.4610   50.4800   17.6220 O   0  0  0  0  0  0  0  0  0  0  0  0
   51.6520   49.2150   19.4240 O   0  0  0  0  0  0  0  0  0  0  0  0
   52.8520   49.8440   19.9460 C   0  0  0  0  0  0  0  0  0  0  0  0
   52.4860   51.1400   20.6230 C   0  0  0  0  0  0  0  0  0  0  0  0
   52.7070   52.3130   19.9960 N   0  0  0  0  0  0  0  0  0  0  0  0
   53.1010   52.3230   19.1100 H   0  0  0  0  0  0  0  0  0  0  0  0
   51.9930   51.1280   21.7300 O   0  0  0  0  0  0  0  0  0  0  0  0
   52.3660   53.5170   20.6250 N   0  0  0  0  0  0  0  0  0  0  0  0
   52.3140   53.5620   21.5920 H   0  0  0  0  0  0  0  0  0  0  0  0
   52.1120   54.6150   19.8850 C   0  0  0  0  0  0  0  0  0  0  0  0
   52.1780   54.5600   18.6730 O   0  0  0  0  0  0  0  0  0  0  0  0
   51.7530   55.8870   20.5490 C   0  0  0  0  0  0  0  0  0  0  0  0
   50.4520   56.0950   21.0090 C   0  0  0  0  0  0  0  0  0  0  0  0
   50.1250   57.2810   21.6320 C   0  0  0  0  0  0  0  0  0  0  0  0
   51.0800   58.2680   21.7910 C   0  0  0  0  0  0  0  0  0  0  0  0
   52.3720   58.0720   21.3320 C   0  0  0  0  0  0  0  0  0  0  0  0
   52.7130   56.8880   20.7130 C   0  0  0  0  0  0  0  0  0  0  0  0
  1  2  1  6  0  0  0
  2  4  1  0  0  0  0
  3  2  1  0  0  0  0
  4  5  2  0  0  0  0
  6 11  1  0  0  0  0
  6  4  1  0  0  0  0
  7  6  2  0  0  0  0
  8  9  2  0  0  0  0
  8  7  1  0  0  0  0
  9 10  1  0  0  0  0
 10 11  2  0  0  0  0
 12  9  1  0  0  0  0
 12 15  1  0  0  0  0
 13 12  1  0  0  0  0
 14 12  1  0  0  0  0
 17  1  1  0  0  0  0
 17 16  1  0  0  0  0
 18 17  1  0  0  0  0
 19  1  1  0  0  0  0
 19 21  1  0  0  0  0
 20 19  2  0  0  0  0
 21 22  1  0  0  0  0
 22 23  1  0  0  0  0
 23 26  2  0  0  0  0
 24 23  1  0  0  0  0
 24 27  1  0  0  0  0
 25 24  1  0  0  0  0
 27 28  1  0  0  0  0
 29 31  1  0  0  0  0
 29 27  1  0  0  0  0
 30 29  2  0  0  0  0
 31 36  2  0  0  0  0
 31 32  1  0  0  0  0
 32 33  2  0  0  0  0
 33 34  1  0  0  0  0
 35 34  2  0  0  0  0
 36 35  1  0  0  0  0
M  END
>  <MODEL>
3

>  <REMARK>
  Name = ZINC18343402
                            x       y       z     vdW  Elec       q    Type
                         _______ _______ _______ _____ _____    ______ ____

>  <TORSDO>
F 10

>  <minimizedAffinity>
-8.7741626776738944

$$$$
ZINC18343402
 OpenBabel10211213283D

 36 37  0  0  1  0  0  0  0  0999 V2000
   50.5050   55.0710   20.5800 C   0  0  1  0  0  0  0  0  0  0  0  0
   50.4860   54.0210   19.5610 N   0  0  0  0  0  0  0  0  0  0  0  0
   51.3090   53.5740   19.3070 H   0  0  0  0  0  0  0  0  0  0  0  0
   49.3230   53.6740   18.9730 C   0  0  0  0  0  0  0  0  0  0  0  0
   48.2910   54.2330   19.2910 O   0  0  0  0  0  0  0  0  0  0  0  0
   49.3020   52.6130   17.9430 C   0  0  0  0  0  0  0  0  0  0  0  0
   48.3480   52.6450   16.9250 C   0  0  0  0  0  0  0  0  0  0  0  0
   48.3360   51.6550   15.9640 C   0  0  0  0  0  0  0  0  0  0  0  0
   49.2610   50.6270   16.0150 C   0  0  0  0  0  0  0  0  0  0  0  0
   50.2070   50.5870   17.0240 C   0  0  0  0  0  0  0  0  0  0  0  0
   50.2320   51.5740   17.9880 C   0  0  0  0  0  0  0  0  0  0  0  0
   49.2380   49.5460   14.9650 C   0  0  0  0  0  0  0  0  0  0  0  0
   48.1680   49.8710   13.9200 C   0  0  0  0  0  0  0  0  0  0  0  0
   48.9180   48.2020   15.6210 C   0  0  0  0  0  0  0  0  0  0  0  0
   50.6070   49.4680   14.2840 C   0  0  0  0  0  0  0  0  0  0  0  0
   51.5670   55.8160   22.7170 C   0  0  0  0  0  0  0  0  0  0  0  0
   51.6190   54.7820   21.5890 C   0  0  0  0  0  0  0  0  0  0  0  0
   51.4260   53.3810   22.1730 C   0  0  0  0  0  0  0  0  0  0  0  0
   50.7580   56.4040   19.9230 C   0  0  0  0  0  0  0  0  0  0  0  0
   51.6850   56.5350   19.1590 O   0  0  0  0  0  0  0  0  0  0  0  0
   49.9530   57.4460   20.1860 O   0  0  0  0  0  0  0  0  0  0  0  0
   48.5310   57.2540   19.9600 C   0  0  0  0  0  0  0  0  0  0  0  0
   48.0510   58.2370   18.9230 C   0  0  0  0  0  0  0  0  0  0  0  0
   48.0820   59.5580   19.1820 N   0  0  0  0  0  0  0  0  0  0  0  0
   48.4140   59.8780   20.0360 H   0  0  0  0  0  0  0  0  0  0  0  0
   47.6360   57.8380   17.8550 O   0  0  0  0  0  0  0  0  0  0  0  0
   47.6350   60.4720   18.2180 N   0  0  0  0  0  0  0  0  0  0  0  0
   47.7210   60.2630   17.2750 H   0  0  0  0  0  0  0  0  0  0  0  0
   47.0850   61.6410   18.6010 C   0  0  0  0  0  0  0  0  0  0  0  0
   46.9760   61.9040   19.7830 O   0  0  0  0  0  0  0  0  0  0  0  0
   46.6130   62.6050   17.5840 C   0  0  0  0  0  0  0  0  0  0  0  0
   47.3280   63.7800   17.3470 C   0  0  0  0  0  0  0  0  0  0  0  0
   46.8860   64.6730   16.3930 C   0  0  0  0  0  0  0  0  0  0  0  0
   45.7310   64.4100   15.6790 C   0  0  0  0  0  0  0  0  0  0  0  0
   45.0140   63.2490   15.9110 C   0  0  0  0  0  0  0  0  0  0  0  0
   45.4490   62.3460   16.8590 C   0  0  0  0  0  0  0  0  0  0  0  0
  1  2  1  6  0  0  0
  1 17  1  0  0  0  0
  3  2  1  0  0  0  0
  4  5  2  0  0  0  0
  4  2  1  0  0  0  0
  6 11  1  0  0  0  0
  6  4  1  0  0  0  0
  7  6  2  0  0  0  0
  8  9  2  0  0  0  0
  8  7  1  0  0  0  0
  9 10  1  0  0  0  0
 10 11  2  0  0  0  0
 12 14  1  0  0  0  0
 12  9  1  0  0  0  0
 13 12  1  0  0  0  0
 15 12  1  0  0  0  0
 17 18  1  0  0  0  0
 17 16  1  0  0  0  0
 19 21  1  0  0  0  0
 19  1  1  0  0  0  0
 20 19  2  0  0  0  0
 22 21  1  0  0  0  0
 23 24  1  0  0  0  0
 23 22  1  0  0  0  0
 24 25  1  0  0  0  0
 26 23  2  0  0  0  0
 27 29  1  0  0  0  0
 27 24  1  0  0  0  0
 28 27  1  0  0  0  0
 29 30  2  0  0  0  0
 31 29  1  0  0  0  0
 32 31  1  0  0  0  0
 33 32  2  0  0  0  0
 34 35  2  0  0  0  0
 34 33  1  0  0  0  0
 35 36  1  0  0  0  0
 36 31  2  0  0  0  0
M  END
>  <MODEL>
4

>  <REMARK>
  Name = ZINC18343402
                            x       y       z     vdW  Elec       q    Type
                         _______ _______ _______ _____ _____    ______ ____

>  <TORSDO>
F 10

>  <minimizedAffinity>
-8.4934169848362959

$$$$
ZINC18343402
 OpenBabel10211213283D

 36 37  0  0  1  0  0  0  0  0999 V2000
   46.7180   49.5760   16.8960 C   0  0  1  0  0  0  0  0  0  0  0  0
   46.6450   48.9330   15.5830 N   0  0  0  0  0  0  0  0  0  0  0  0
   47.4170   48.9380   14.9950 H   0  0  0  0  0  0  0  0  0  0  0  0
   45.5020   48.3350   15.1890 C   0  0  0  0  0  0  0  0  0  0  0  0
   44.5350   48.3290   15.9240 O   0  0  0  0  0  0  0  0  0  0  0  0
   45.4270   47.6860   13.8630 C   0  0  0  0  0  0  0  0  0  0  0  0
   45.0300   46.3510   13.7580 C   0  0  0  0  0  0  0  0  0  0  0  0
   44.9570   45.7520   12.5170 C   0  0  0  0  0  0  0  0  0  0  0  0
   45.2860   46.4690   11.3800 C   0  0  0  0  0  0  0  0  0  0  0  0
   45.6830   47.7900   11.4770 C   0  0  0  0  0  0  0  0  0  0  0  0
   45.7560   48.4020   12.7110 C   0  0  0  0  0  0  0  0  0  0  0  0
   45.2080   45.8060   10.0280 C   0  0  0  0  0  0  0  0  0  0  0  0
   44.6330   46.7910    9.0080 C   0  0  0  0  0  0  0  0  0  0  0  0
   44.3040   44.5750   10.1140 C   0  0  0  0  0  0  0  0  0  0  0  0
   46.6110   45.3790    9.5890 C   0  0  0  0  0  0  0  0  0  0  0  0
   46.4820   48.0340   18.8480 C   0  0  0  0  0  0  0  0  0  0  0  0
   47.4730   48.6660   17.8680 C   0  0  0  0  0  0  0  0  0  0  0  0
   48.1870   47.5640   17.0830 C   0  0  0  0  0  0  0  0  0  0  0  0
   47.4460   50.8900   16.7710 C   0  0  0  0  0  0  0  0  0  0  0  0
   46.9840   51.8870   17.2730 O   0  0  0  0  0  0  0  0  0  0  0  0
   48.6090   50.9530   16.1020 O   0  0  0  0  0  0  0  0  0  0  0  0
   49.8260   50.7950   16.8780 C   0  0  0  0  0  0  0  0  0  0  0  0
   49.8360   51.7950   18.0060 C   0  0  0  0  0  0  0  0  0  0  0  0
   49.7360   53.1120   17.7380 N   0  0  0  0  0  0  0  0  0  0  0  0
   49.6570   53.4170   16.8210 H   0  0  0  0  0  0  0  0  0  0  0  0
   49.9340   51.4150   19.1530 O   0  0  0  0  0  0  0  0  0  0  0  0
   49.7450   54.0420   18.7860 N   0  0  0  0  0  0  0  0  0  0  0  0
   50.2610   53.8640   19.5880 H   0  0  0  0  0  0  0  0  0  0  0  0
   49.0380   55.1840   18.6800 C   0  0  0  0  0  0  0  0  0  0  0  0
   48.3920   55.4080   17.6750 O   0  0  0  0  0  0  0  0  0  0  0  0
   49.0480   56.1660   19.7850 C   0  0  0  0  0  0  0  0  0  0  0  0
   50.1220   56.2090   20.6760 C   0  0  0  0  0  0  0  0  0  0  0  0
   50.1280   57.1300   21.7020 C   0  0  0  0  0  0  0  0  0  0  0  0
   49.0670   58.0040   21.8560 C   0  0  0  0  0  0  0  0  0  0  0  0
   47.9960   57.9640   20.9810 C   0  0  0  0  0  0  0  0  0  0  0  0
   47.9810   57.0510   19.9470 C   0  0  0  0  0  0  0  0  0  0  0  0
  1  2  1  6  0  0  0
  1 17  1  0  0  0  0
  3  2  1  0  0  0  0
  4  2  1  0  0  0  0
  4  5  2  0  0  0  0
  6  4  1  0  0  0  0
  7  6  1  0  0  0  0
  8  7  2  0  0  0  0
  9 10  2  0  0  0  0
  9  8  1  0  0  0  0
 10 11  1  0  0  0  0
 11  6  2  0  0  0  0
 12 14  1  0  0  0  0
 12  9  1  0  0  0  0
 13 12  1  0  0  0  0
 15 12  1  0  0  0  0
 17 16  1  0  0  0  0
 18 17  1  0  0  0  0
 19  1  1  0  0  0  0
 19 20  2  0  0  0  0
 21 19  1  0  0  0  0
 21 22  1  0  0  0  0
 22 23  1  0  0  0  0
 23 26  2  0  0  0  0
 24 23  1  0  0  0  0
 24 27  1  0  0  0  0
 25 24  1  0  0  0  0
 27 28  1  0  0  0  0
 29 27  1  0  0  0  0
 29 31  1  0  0  0  0
 30 29  2  0  0  0  0
 31 36  2  0  0  0  0
 31 32  1  0  0  0  0
 32 33  2  0  0  0  0
 33 34  1  0  0  0  0
 35 34  2  0  0  0  0
 36 35  1  0  0  0  0
M  END
>  <MODEL>
5

>  <REMARK>
  Name = ZINC18343402
                            x       y       z     vdW  Elec       q    Type
                         _______ _______ _______ _____ _____    ______ ____

>  <TORSDO>
F 10

>  <minimizedAffinity>
-8.3672304301738816

$$$$
ZINC18343402
 OpenBabel10211213283D

 36 37  0  0  1  0  0  0  0  0999 V2000
   50.4040   53.0430   19.1370 C   0  0  1  0  0  0  0  0  0  0  0  0
   49.5250   52.1670   18.3590 N   0  0  0  0  0  0  0  0  0  0  0  0
   49.0600   52.5130   17.5820 H   0  0  0  0  0  0  0  0  0  0  0  0
   49.3630   50.8800   18.7250 C   0  0  0  0  0  0  0  0  0  0  0  0
   49.9460   50.4460   19.6980 O   0  0  0  0  0  0  0  0  0  0  0  0
   48.4760   49.9950   17.9400 C   0  0  0  0  0  0  0  0  0  0  0  0
   47.6900   49.0390   18.5870 C   0  0  0  0  0  0  0  0  0  0  0  0
   46.8610   48.2190   17.8500 C   0  0  0  0  0  0  0  0  0  0  0  0
   46.8150   48.3360   16.4720 C   0  0  0  0  0  0  0  0  0  0  0  0
   47.5940   49.2780   15.8240 C   0  0  0  0  0  0  0  0  0  0  0  0
   48.4230   50.1070   16.5500 C   0  0  0  0  0  0  0  0  0  0  0  0
   45.9100   47.4330   15.6730 C   0  0  0  0  0  0  0  0  0  0  0  0
   46.2910   45.9730   15.9280 C   0  0  0  0  0  0  0  0  0  0  0  0
   46.0610   47.7470   14.1840 C   0  0  0  0  0  0  0  0  0  0  0  0
   44.4580   47.6620   16.0980 C   0  0  0  0  0  0  0  0  0  0  0  0
   52.6870   54.0520   19.2620 C   0  0  0  0  0  0  0  0  0  0  0  0
   51.7510   53.1790   18.4230 C   0  0  0  0  0  0  0  0  0  0  0  0
   52.3730   51.7930   18.2400 C   0  0  0  0  0  0  0  0  0  0  0  0
   49.7670   54.4030   19.2710 C   0  0  0  0  0  0  0  0  0  0  0  0
   49.4320   55.0130   18.2830 O   0  0  0  0  0  0  0  0  0  0  0  0
   49.5730   54.9370   20.4870 O   0  0  0  0  0  0  0  0  0  0  0  0
   50.3400   56.1250   20.8160 C   0  0  0  0  0  0  0  0  0  0  0  0
   49.4040   57.2920   20.9990 C   0  0  0  0  0  0  0  0  0  0  0  0
   48.7460   57.8000   19.9390 N   0  0  0  0  0  0  0  0  0  0  0  0
   48.8740   57.4150   19.0570 H   0  0  0  0  0  0  0  0  0  0  0  0
   49.2420   57.7730   22.1000 O   0  0  0  0  0  0  0  0  0  0  0  0
   47.8760   58.8850   20.1080 N   0  0  0  0  0  0  0  0  0  0  0  0
   47.6440   59.1860   21.0010 H   0  0  0  0  0  0  0  0  0  0  0  0
   47.3600   59.5100   19.0310 C   0  0  0  0  0  0  0  0  0  0  0  0
   47.6500   59.1330   17.9130 O   0  0  0  0  0  0  0  0  0  0  0  0
   46.4420   60.6550   19.2110 C   0  0  0  0  0  0  0  0  0  0  0  0
   45.0740   60.4990   18.9830 C   0  0  0  0  0  0  0  0  0  0  0  0
   44.2220   61.5690   19.1570 C   0  0  0  0  0  0  0  0  0  0  0  0
   44.7220   62.7990   19.5460 C   0  0  0  0  0  0  0  0  0  0  0  0
   46.0780   62.9630   19.7680 C   0  0  0  0  0  0  0  0  0  0  0  0
   46.9400   61.8980   19.6030 C   0  0  0  0  0  0  0  0  0  0  0  0
  1  2  1  6  0  0  0
  1 19  1  0  0  0  0
  2  4  1  0  0  0  0
  3  2  1  0  0  0  0
  4  5  2  0  0  0  0
  6  7  1  0  0  0  0
  6  4  1  0  0  0  0
  8  7  2  0  0  0  0
  9  8  1  0  0  0  0
 10  9  2  0  0  0  0
 10 11  1  0  0  0  0
 11  6  2  0  0  0  0
 12 13  1  0  0  0  0
 12 15  1  0  0  0  0
 12  9  1  0  0  0  0
 14 12  1  0  0  0  0
 17  1  1  0  0  0  0
 17 16  1  0  0  0  0
 18 17  1  0  0  0  0
 19 21  1  0  0  0  0
 20 19  2  0  0  0  0
 21 22  1  0  0  0  0
 22 23  1  0  0  0  0
 23 26  2  0  0  0  0
 24 27  1  0  0  0  0
 24 23  1  0  0  0  0
 25 24  1  0  0  0  0
 27 28  1  0  0  0  0
 29 31  1  0  0  0  0
 29 27  1  0  0  0  0
 30 29  2  0  0  0  0
 31 36  2  0  0  0  0
 32 33  2  0  0  0  0
 32 31  1  0  0  0  0
 33 34  1  0  0  0  0
 34 35  2  0  0  0  0
 36 35  1  0  0  0  0
M  END
>  <MODEL>
6

>  <REMARK>
  Name = ZINC18343402
                            x       y       z     vdW  Elec       q    Type
                         _______ _______ _______ _____ _____    ______ ____

>  <TORSDO>
F 10

>  <minimizedAffinity>
-8.3648382495310631

$$$$
ZINC18343402
 OpenBabel10211213283D

 36 37  0  0  1  0  0  0  0  0999 V2000
   50.8520   51.2950   19.5630 C   0  0  1  0  0  0  0  0  0  0  0  0
   49.8820   50.6860   18.6510 N   0  0  0  0  0  0  0  0  0  0  0  0
   49.6340   51.1410   17.8310 H   0  0  0  0  0  0  0  0  0  0  0  0
   49.3310   49.4930   18.9530 C   0  0  0  0  0  0  0  0  0  0  0  0
   49.6410   48.9240   19.9810 O   0  0  0  0  0  0  0  0  0  0  0  0
   48.3500   48.8770   18.0340 C   0  0  0  0  0  0  0  0  0  0  0  0
   48.7650   48.3840   16.7960 C   0  0  0  0  0  0  0  0  0  0  0  0
   47.8460   47.8060   15.9440 C   0  0  0  0  0  0  0  0  0  0  0  0
   46.5140   47.7250   16.3110 C   0  0  0  0  0  0  0  0  0  0  0  0
   46.0960   48.2160   17.5350 C   0  0  0  0  0  0  0  0  0  0  0  0
   47.0060   48.7920   18.3980 C   0  0  0  0  0  0  0  0  0  0  0  0
   45.5150   47.0970   15.3730 C   0  0  0  0  0  0  0  0  0  0  0  0
   44.0980   47.4780   15.8080 C   0  0  0  0  0  0  0  0  0  0  0  0
   45.6680   45.5760   15.4090 C   0  0  0  0  0  0  0  0  0  0  0  0
   45.7650   47.6020   13.9510 C   0  0  0  0  0  0  0  0  0  0  0  0
   52.8750   49.8310   19.6480 C   0  0  0  0  0  0  0  0  0  0  0  0
   52.2660   51.0850   19.0170 C   0  0  0  0  0  0  0  0  0  0  0  0
   52.2060   50.9140   17.4980 C   0  0  0  0  0  0  0  0  0  0  0  0
   50.5740   52.7720   19.6790 C   0  0  0  0  0  0  0  0  0  0  0  0
   50.6180   53.4740   18.6960 O   0  0  0  0  0  0  0  0  0  0  0  0
   50.2770   53.3080   20.8730 O   0  0  0  0  0  0  0  0  0  0  0  0
   51.0760   54.4410   21.3050 C   0  0  0  0  0  0  0  0  0  0  0  0
   50.3370   55.7200   21.0060 C   0  0  0  0  0  0  0  0  0  0  0  0
   49.1460   55.6770   20.3770 N   0  0  0  0  0  0  0  0  0  0  0  0
   48.7630   54.8240   20.1180 H   0  0  0  0  0  0  0  0  0  0  0  0
   50.8150   56.7860   21.3300 O   0  0  0  0  0  0  0  0  0  0  0  0
   48.4590   56.8660   20.0990 N   0  0  0  0  0  0  0  0  0  0  0  0
   48.1510   57.4300   20.8260 H   0  0  0  0  0  0  0  0  0  0  0  0
   48.2260   57.2270   18.8220 C   0  0  0  0  0  0  0  0  0  0  0  0
   48.6110   56.5210   17.9100 O   0  0  0  0  0  0  0  0  0  0  0  0
   47.5010   58.4820   18.5280 C   0  0  0  0  0  0  0  0  0  0  0  0
   47.3630   59.4590   19.5150 C   0  0  0  0  0  0  0  0  0  0  0  0
   46.6900   60.6300   19.2330 C   0  0  0  0  0  0  0  0  0  0  0  0
   46.1430   60.8320   17.9790 C   0  0  0  0  0  0  0  0  0  0  0  0
   46.2720   59.8650   16.9970 C   0  0  0  0  0  0  0  0  0  0  0  0
   46.9470   58.6930   17.2640 C   0  0  0  0  0  0  0  0  0  0  0  0
  1  2  1  6  0  0  0
  1 19  1  0  0  0  0
  2  4  1  0  0  0  0
  3  2  1  0  0  0  0
  4  5  2  0  0  0  0
  6 11  1  0  0  0  0
  6  4  1  0  0  0  0
  7  6  2  0  0  0  0
  8  9  2  0  0  0  0
  8  7  1  0  0  0  0
  9 10  1  0  0  0  0
 10 11  2  0  0  0  0
 12 14  1  0  0  0  0
 12 13  1  0  0  0  0
 12  9  1  0  0  0  0
 15 12  1  0  0  0  0
 17  1  1  0  0  0  0
 17 16  1  0  0  0  0
 18 17  1  0  0  0  0
 19 21  1  0  0  0  0
 20 19  2  0  0  0  0
 21 22  1  0  0  0  0
 23 22  1  0  0  0  0
 23 26  2  0  0  0  0
 24 23  1  0  0  0  0
 25 24  1  0  0  0  0
 27 24  1  0  0  0  0
 27 28  1  0  0  0  0
 29 27  1  0  0  0  0
 30 29  2  0  0  0  0
 31 29  1  0  0  0  0
 31 32  2  0  0  0  0
 33 32  1  0  0  0  0
 34 33  2  0  0  0  0
 35 36  2  0  0  0  0
 35 34  1  0  0  0  0
 36 31  1  0  0  0  0
M  END
>  <MODEL>
7

>  <REMARK>
  Name = ZINC18343402
                            x       y       z     vdW  Elec       q    Type
                         _______ _______ _______ _____ _____    ______ ____

>  <TORSDO>
F 10

>  <minimizedAffinity>
-8.3218803625079776

$$$$
ZINC18343402
 OpenBabel10211213283D

 36 37  0  0  1  0  0  0  0  0999 V2000
   50.8890   50.7290   18.6370 C   0  0  1  0  0  0  0  0  0  0  0  0
   50.2090   51.9540   19.0620 N   0  0  0  0  0  0  0  0  0  0  0  0
   49.3560   51.9020   19.5210 H   0  0  0  0  0  0  0  0  0  0  0  0
   50.7680   53.1560   18.8140 C   0  0  0  0  0  0  0  0  0  0  0  0
   51.8360   53.2210   18.2390 O   0  0  0  0  0  0  0  0  0  0  0  0
   50.0820   54.3930   19.2420 C   0  0  0  0  0  0  0  0  0  0  0  0
   49.1670   55.0170   18.3910 C   0  0  0  0  0  0  0  0  0  0  0  0
   48.5270   56.1700   18.7980 C   0  0  0  0  0  0  0  0  0  0  0  0
   48.7970   56.7120   20.0420 C   0  0  0  0  0  0  0  0  0  0  0  0
   49.7050   56.1010   20.8880 C   0  0  0  0  0  0  0  0  0  0  0  0
   50.3490   54.9460   20.4950 C   0  0  0  0  0  0  0  0  0  0  0  0
   48.0970   57.9740   20.4770 C   0  0  0  0  0  0  0  0  0  0  0  0
   48.2750   59.0520   19.4060 C   0  0  0  0  0  0  0  0  0  0  0  0
   48.6980   58.4630   21.7960 C   0  0  0  0  0  0  0  0  0  0  0  0
   46.6060   57.6890   20.6710 C   0  0  0  0  0  0  0  0  0  0  0  0
   52.8800   49.7640   19.8000 C   0  0  0  0  0  0  0  0  0  0  0  0
   51.3630   49.9550   19.8690 C   0  0  0  0  0  0  0  0  0  0  0  0
   51.0050   50.7410   21.1330 C   0  0  0  0  0  0  0  0  0  0  0  0
   49.9350   49.8740   17.8440 C   0  0  0  0  0  0  0  0  0  0  0  0
   49.7620   50.0930   16.6680 O   0  0  0  0  0  0  0  0  0  0  0  0
   49.2760   48.8700   18.4430 O   0  0  0  0  0  0  0  0  0  0  0  0
   47.8260   48.8970   18.3740 C   0  0  0  0  0  0  0  0  0  0  0  0
   47.3420   47.7450   17.5320 C   0  0  0  0  0  0  0  0  0  0  0  0
   46.0610   47.3370   17.6220 N   0  0  0  0  0  0  0  0  0  0  0  0
   45.4500   47.7850   18.2280 H   0  0  0  0  0  0  0  0  0  0  0  0
   48.1040   47.1840   16.7740 O   0  0  0  0  0  0  0  0  0  0  0  0
   45.6100   46.2660   16.8390 N   0  0  0  0  0  0  0  0  0  0  0  0
   46.0520   45.4050   16.8940 H   0  0  0  0  0  0  0  0  0  0  0  0
   44.5600   46.4320   16.0110 C   0  0  0  0  0  0  0  0  0  0  0  0
   44.0040   47.5100   15.9420 O   0  0  0  0  0  0  0  0  0  0  0  0
   44.0840   45.3020   15.1850 C   0  0  0  0  0  0  0  0  0  0  0  0
   44.9070   44.1950   14.9690 C   0  0  0  0  0  0  0  0  0  0  0  0
   44.4550   43.1420   14.2020 C   0  0  0  0  0  0  0  0  0  0  0  0
   43.1920   43.1840   13.6390 C   0  0  0  0  0  0  0  0  0  0  0  0
   42.3720   44.2800   13.8450 C   0  0  0  0  0  0  0  0  0  0  0  0
   42.8100   45.3370   14.6150 C   0  0  0  0  0  0  0  0  0  0  0  0
  1 19  1  1  0  0  0
  1  2  1  0  0  0  0
  1 17  1  0  0  0  0
  2  3  1  0  0  0  0
  4  2  1  0  0  0  0
  4  6  1  0  0  0  0
  5  4  2  0  0  0  0
  6 11  2  0  0  0  0
  7  8  2  0  0  0  0
  7  6  1  0  0  0  0
  8  9  1  0  0  0  0
  9 12  1  0  0  0  0
  9 10  2  0  0  0  0
 11 10  1  0  0  0  0
 12 15  1  0  0  0  0
 12 14  1  0  0  0  0
 13 12  1  0  0  0  0
 16 17  1  0  0  0  0
 17 18  1  0  0  0  0
 19 21  1  0  0  0  0
 20 19  2  0  0  0  0
 22 21  1  0  0  0  0
 23 24  1  0  0  0  0
 23 22  1  0  0  0  0
 24 25  1  0  0  0  0
 26 23  2  0  0  0  0
 27 28  1  0  0  0  0
 27 24  1  0  0  0  0
 29 27  1  0  0  0  0
 30 29  2  0  0  0  0
 31 29  1  0  0  0  0
 32 31  1  0  0  0  0
 33 32  2  0  0  0  0
 34 35  2  0  0  0  0
 34 33  1  0  0  0  0
 35 36  1  0  0  0  0
 36 31  2  0  0  0  0
M  END
>  <MODEL>
8

>  <REMARK>
  Name = ZINC18343402
                            x       y       z     vdW  Elec       q    Type
                         _______ _______ _______ _____ _____    ______ ____

>  <TORSDO>
F 10

>  <minimizedAffinity>
-8.0603092740448936

$$$$
ZINC18343402
 OpenBabel10211213283D

 36 37  0  0  1  0  0  0  0  0999 V2000
   49.3060   57.0170   19.3040 C   0  0  1  0  0  0  0  0  0  0  0  0
   48.3480   56.7950   18.2180 N   0  0  0  0  0  0  0  0  0  0  0  0
   48.0190   55.9010   18.0360 H   0  0  0  0  0  0  0  0  0  0  0  0
   47.9250   57.8340   17.4710 C   0  0  0  0  0  0  0  0  0  0  0  0
   48.3380   58.9540   17.6990 O   0  0  0  0  0  0  0  0  0  0  0  0
   46.9590   57.6110   16.3740 C   0  0  0  0  0  0  0  0  0  0  0  0
   45.9010   58.5010   16.1810 C   0  0  0  0  0  0  0  0  0  0  0  0
   45.0050   58.2910   15.1530 C   0  0  0  0  0  0  0  0  0  0  0  0
   45.1480   57.1940   14.3210 C   0  0  0  0  0  0  0  0  0  0  0  0
   46.1920   56.3060   14.5100 C   0  0  0  0  0  0  0  0  0  0  0  0
   47.0980   56.5080   15.5310 C   0  0  0  0  0  0  0  0  0  0  0  0
   44.1630   56.9670   13.2040 C   0  0  0  0  0  0  0  0  0  0  0  0
   42.7380   57.0450   13.7560 C   0  0  0  0  0  0  0  0  0  0  0  0
   44.3960   55.5870   12.5880 C   0  0  0  0  0  0  0  0  0  0  0  0
   44.3520   58.0420   12.1310 C   0  0  0  0  0  0  0  0  0  0  0  0
   49.5170   57.3840   21.7670 C   0  0  0  0  0  0  0  0  0  0  0  0
   48.5850   56.9100   20.6490 C   0  0  0  0  0  0  0  0  0  0  0  0
   47.3300   57.7870   20.6260 C   0  0  0  0  0  0  0  0  0  0  0  0
   50.3940   55.9760   19.2340 C   0  0  0  0  0  0  0  0  0  0  0  0
   51.5200   56.2980   18.9350 O   0  0  0  0  0  0  0  0  0  0  0  0
   50.1120   54.6910   19.5030 O   0  0  0  0  0  0  0  0  0  0  0  0
   50.4510   53.7140   18.4840 C   0  0  0  0  0  0  0  0  0  0  0  0
   49.2170   52.9370   18.1030 C   0  0  0  0  0  0  0  0  0  0  0  0
   49.2910   51.6030   17.9240 N   0  0  0  0  0  0  0  0  0  0  0  0
   50.1370   51.1430   18.0400 H   0  0  0  0  0  0  0  0  0  0  0  0
   48.1590   53.5110   17.9590 O   0  0  0  0  0  0  0  0  0  0  0  0
   48.1440   50.8800   17.5700 N   0  0  0  0  0  0  0  0  0  0  0  0
   47.5140   51.2500   16.9330 H   0  0  0  0  0  0  0  0  0  0  0  0
   47.9170   49.6680   18.1150 C   0  0  0  0  0  0  0  0  0  0  0  0
   48.7070   49.2030   18.9130 O   0  0  0  0  0  0  0  0  0  0  0  0
   46.7070   48.9050   17.7420 C   0  0  0  0  0  0  0  0  0  0  0  0
   46.0910   48.0680   18.6730 C   0  0  0  0  0  0  0  0  0  0  0  0
   44.9600   47.3620   18.3210 C   0  0  0  0  0  0  0  0  0  0  0  0
   44.4410   47.4750   17.0430 C   0  0  0  0  0  0  0  0  0  0  0  0
   45.0490   48.2990   16.1120 C   0  0  0  0  0  0  0  0  0  0  0  0
   46.1780   49.0140   16.4550 C   0  0  0  0  0  0  0  0  0  0  0  0
  1  2  1  1  0  0  0
  1 17  1  0  0  0  0
  3  2  1  0  0  0  0
  4  5  2  0  0  0  0
  4  2  1  0  0  0  0
  6  4  1  0  0  0  0
  7  6  1  0  0  0  0
  8  7  2  0  0  0  0
  9 10  2  0  0  0  0
  9  8  1  0  0  0  0
 10 11  1  0  0  0  0
 11  6  2  0  0  0  0
 12 13  1  0  0  0  0
 12  9  1  0  0  0  0
 14 12  1  0  0  0  0
 15 12  1  0  0  0  0
 17 16  1  0  0  0  0
 18 17  1  0  0  0  0
 19  1  1  0  0  0  0
 19 21  1  0  0  0  0
 20 19  2  0  0  0  0
 22 21  1  0  0  0  0
 23 22  1  0  0  0  0
 24 25  1  0  0  0  0
 24 23  1  0  0  0  0
 26 23  2  0  0  0  0
 27 24  1  0  0  0  0
 27 29  1  0  0  0  0
 28 27  1  0  0  0  0
 29 30  2  0  0  0  0
 31 29  1  0  0  0  0
 31 32  2  0  0  0  0
 33 32  1  0  0  0  0
 34 33  2  0  0  0  0
 35 36  2  0  0  0  0
 35 34  1  0  0  0  0
 36 31  1  0  0  0  0
M  END
>  <MODEL>
9

>  <REMARK>
  Name = ZINC18343402
                            x       y       z     vdW  Elec       q    Type
                         _______ _______ _______ _____ _____    ______ ____

>  <TORSDO>
F 10

>  <minimizedAffinity>
-8.0424467619189031

$$$$
ZINC03286291
 OpenBabel10211213313D

 35 37  0  0  1  0  0  0  0  0999 V2000
   50.8720   51.6350   19.1700 C   0  0  1  0  0  0  0  0  0  0  0  0
   50.8440   50.2100   19.5100 N   0  0  0  0  0  0  0  0  0  0  0  0
   50.0120   49.7140   19.4490 H   0  0  0  0  0  0  0  0  0  0  0  0
   51.9720   49.5890   19.9070 C   0  0  0  0  0  0  0  0  0  0  0  0
   51.9260   48.3080   20.3220 N   0  0  0  0  0  0  0  0  0  0  0  0
   51.0800   47.8340   20.3380 H   0  0  0  0  0  0  0  0  0  0  0  0
   52.7390   47.8610   20.6080 H   0  0  0  0  0  0  0  0  0  0  0  0
   53.0320   50.1860   19.8900 O   0  0  0  0  0  0  0  0  0  0  0  0
   48.2430   51.1950   16.4920 C   0  0  0  0  0  0  0  0  0  0  0  0
   47.7730   52.4930   16.3520 C   0  0  0  0  0  0  0  0  0  0  0  0
   48.3080   53.5060   17.1240 C   0  0  0  0  0  0  0  0  0  0  0  0
   49.3060   53.2270   18.0380 C   0  0  0  0  0  0  0  0  0  0  0  0
   49.7790   51.9360   18.1760 C   0  0  0  0  0  0  0  0  0  0  0  0
   49.2480   50.9180   17.4060 C   0  0  0  0  0  0  0  0  0  0  0  0
   47.7180   50.1970   15.7340 O   0  0  0  0  0  0  0  0  0  0  0  0
   45.5950   47.2240   17.6510 C   0  0  0  0  0  0  0  0  0  0  0  0
   45.2660   48.5500   17.8580 C   0  0  0  0  0  0  0  0  0  0  0  0
   45.9750   49.5470   17.2180 C   0  0  0  0  0  0  0  0  0  0  0  0
   47.0190   49.2170   16.3650 C   0  0  0  0  0  0  0  0  0  0  0  0
   47.3440   47.8850   16.1540 C   0  0  0  0  0  0  0  0  0  0  0  0
   46.6350   46.8910   16.8010 C   0  0  0  0  0  0  0  0  0  0  0  0
   50.6520   52.4650   20.4360 C   0  0  0  0  0  0  0  0  0  0  0  0
   51.8730   53.3040   20.7050 C   0  0  0  0  0  0  0  0  0  0  0  0
   52.5210   53.7410   19.7830 O   0  0  0  0  0  0  0  0  0  0  0  0
   52.2430   53.5670   21.9690 O   0  0  0  0  0  0  0  0  0  0  0  0
   51.4100   54.4860   22.7230 C   0  0  0  0  0  0  0  0  0  0  0  0
   51.5310   55.8700   22.1370 C   0  0  0  0  0  0  0  0  0  0  0  0
   52.6140   56.4130   22.0840 O   0  0  0  0  0  0  0  0  0  0  0  0
   50.3370   56.5600   21.6270 C   0  0  0  0  0  0  0  0  0  0  0  0
   49.9270   57.7700   22.1990 C   0  0  0  0  0  0  0  0  0  0  0  0
   48.8110   58.4150   21.7120 C   0  0  0  0  0  0  0  0  0  0  0  0
   48.0870   57.8620   20.6680 C   0  0  0  0  0  0  0  0  0  0  0  0
   46.6780   58.6780   20.0650 Cl  0  0  0  0  0  0  0  0  0  0  0  0
   48.4840   56.6620   20.1000 C   0  0  0  0  0  0  0  0  0  0  0  0
   49.6030   56.0080   20.5720 C   0  0  0  0  0  0  0  0  0  0  0  0
  1 13  1  1  0  0  0
  1  2  1  0  0  0  0
  1 22  1  0  0  0  0
  2  4  1  0  0  0  0
  3  2  1  0  0  0  0
  4  5  1  0  0  0  0
  5  6  1  0  0  0  0
  5  7  1  0  0  0  0
  8  4  2  0  0  0  0
  9 14  1  0  0  0  0
 10  9  2  0  0  0  0
 10 11  1  0  0  0  0
 11 12  2  0  0  0  0
 12 13  1  0  0  0  0
 14 13  2  0  0  0  0
 15 19  1  0  0  0  0
 15  9  1  0  0  0  0
 16 17  1  0  0  0  0
 18 17  2  0  0  0  0
 19 18  1  0  0  0  0
 20 19  2  0  0  0  0
 20 21  1  0  0  0  0
 21 16  2  0  0  0  0
 22 23  1  0  0  0  0
 23 25  1  0  0  0  0
 24 23  2  0  0  0  0
 25 26  1  0  0  0  0
 27 26  1  0  0  0  0
 28 27  2  0  0  0  0
 29 27  1  0  0  0  0
 29 30  2  0  0  0  0
 31 30  1  0  0  0  0
 32 31  2  0  0  0  0
 33 32  1  0  0  0  0
 34 35  2  0  0  0  0
 34 32  1  0  0  0  0
 35 29  1  0  0  0  0
M  END
>  <MODEL>
1

>  <REMARK>
  Name = ZINC03286291
                            x       y       z     vdW  Elec       q    Type
                         _______ _______ _______ _____ _____    ______ ____

>  <TORSDO>
F 10

>  <minimizedAffinity>
-10.042877063425045

$$$$
ZINC03286291
 OpenBabel10211213313D

 35 37  0  0  1  0  0  0  0  0999 V2000
   50.5170   51.1420   19.4760 C   0  0  1  0  0  0  0  0  0  0  0  0
   51.3640   50.0120   19.8660 N   0  0  0  0  0  0  0  0  0  0  0  0
   52.3220   50.0520   19.7220 H   0  0  0  0  0  0  0  0  0  0  0  0
   50.8110   48.9170   20.4250 C   0  0  0  0  0  0  0  0  0  0  0  0
   51.5730   47.8360   20.6850 N   0  0  0  0  0  0  0  0  0  0  0  0
   52.5180   47.8450   20.4670 H   0  0  0  0  0  0  0  0  0  0  0  0
   51.1750   47.0480   21.0870 H   0  0  0  0  0  0  0  0  0  0  0  0
   49.6250   48.9050   20.6950 O   0  0  0  0  0  0  0  0  0  0  0  0
   51.0930   54.7180   20.5530 C   0  0  0  0  0  0  0  0  0  0  0  0
   51.5030   54.5460   21.8670 C   0  0  0  0  0  0  0  0  0  0  0  0
   51.5930   53.2760   22.4010 C   0  0  0  0  0  0  0  0  0  0  0  0
   51.2680   52.1760   21.6290 C   0  0  0  0  0  0  0  0  0  0  0  0
   50.8650   52.3440   20.3180 C   0  0  0  0  0  0  0  0  0  0  0  0
   50.7730   53.6130   19.7780 C   0  0  0  0  0  0  0  0  0  0  0  0
   51.0040   55.9670   20.0260 O   0  0  0  0  0  0  0  0  0  0  0  0
   47.6250   58.1840   20.8550 C   0  0  0  0  0  0  0  0  0  0  0  0
   48.6980   58.2100   21.7260 C   0  0  0  0  0  0  0  0  0  0  0  0
   49.8310   57.4690   21.4510 C   0  0  0  0  0  0  0  0  0  0  0  0
   49.8910   56.6970   20.2980 C   0  0  0  0  0  0  0  0  0  0  0  0
   48.8150   56.6770   19.4230 C   0  0  0  0  0  0  0  0  0  0  0  0
   47.6820   57.4160   19.7050 C   0  0  0  0  0  0  0  0  0  0  0  0
   50.7500   51.4690   17.9990 C   0  0  0  0  0  0  0  0  0  0  0  0
   49.4320   51.4710   17.2710 C   0  0  0  0  0  0  0  0  0  0  0  0
   48.4450   51.9140   17.8100 O   0  0  0  0  0  0  0  0  0  0  0  0
   49.3530   50.9810   16.0230 O   0  0  0  0  0  0  0  0  0  0  0  0
   49.2770   49.5380   15.8850 C   0  0  0  0  0  0  0  0  0  0  0  0
   47.8700   49.1430   15.5180 C   0  0  0  0  0  0  0  0  0  0  0  0
   47.5010   49.2140   14.3650 O   0  0  0  0  0  0  0  0  0  0  0  0
   46.9440   48.6690   16.5580 C   0  0  0  0  0  0  0  0  0  0  0  0
   45.6050   48.4110   16.2420 C   0  0  0  0  0  0  0  0  0  0  0  0
   44.7450   47.9600   17.2200 C   0  0  0  0  0  0  0  0  0  0  0  0
   45.1990   47.7750   18.5160 C   0  0  0  0  0  0  0  0  0  0  0  0
   44.1070   47.2140   19.7430 Cl  0  0  0  0  0  0  0  0  0  0  0  0
   46.5220   48.0330   18.8360 C   0  0  0  0  0  0  0  0  0  0  0  0
   47.3960   48.4780   17.8670 C   0  0  0  0  0  0  0  0  0  0  0  0
  1 22  1  6  0  0  0
  1  2  1  0  0  0  0
  1 13  1  0  0  0  0
  2  4  1  0  0  0  0
  3  2  1  0  0  0  0
  4  5  1  0  0  0  0
  4  8  2  0  0  0  0
  5  7  1  0  0  0  0
  6  5  1  0  0  0  0
  9 10  2  0  0  0  0
 10 11  1  0  0  0  0
 12 11  2  0  0  0  0
 13 12  1  0  0  0  0
 14 13  2  0  0  0  0
 14  9  1  0  0  0  0
 15 19  1  0  0  0  0
 15  9  1  0  0  0  0
 16 17  2  0  0  0  0
 18 17  1  0  0  0  0
 19 18  2  0  0  0  0
 20 21  2  0  0  0  0
 20 19  1  0  0  0  0
 21 16  1  0  0  0  0
 23 24  2  0  0  0  0
 23 22  1  0  0  0  0
 25 23  1  0  0  0  0
 26 25  1  0  0  0  0
 27 26  1  0  0  0  0
 27 29  1  0  0  0  0
 28 27  2  0  0  0  0
 29 35  1  0  0  0  0
 30 29  2  0  0  0  0
 30 31  1  0  0  0  0
 31 32  2  0  0  0  0
 32 34  1  0  0  0  0
 32 33  1  0  0  0  0
 35 34  2  0  0  0  0
M  END
>  <MODEL>
2

>  <REMARK>
  Name = ZINC03286291
                            x       y       z     vdW  Elec       q    Type
                         _______ _______ _______ _____ _____    ______ ____

>  <TORSDO>
F 10

>  <minimizedAffinity>
-9.6479782583722518

$$$$
ZINC03286291
 OpenBabel10211213313D

 35 37  0  0  1  0  0  0  0  0999 V2000
   50.5350   51.2650   18.6450 C   0  0  1  0  0  0  0  0  0  0  0  0
   51.4100   51.5550   17.5060 N   0  0  0  0  0  0  0  0  0  0  0  0
   51.1600   52.2390   16.8650 H   0  0  0  0  0  0  0  0  0  0  0  0
   52.5620   50.8730   17.3500 C   0  0  0  0  0  0  0  0  0  0  0  0
   53.3130   51.0620   16.2480 N   0  0  0  0  0  0  0  0  0  0  0  0
   53.0240   51.6870   15.5650 H   0  0  0  0  0  0  0  0  0  0  0  0
   54.1420   50.5700   16.1360 H   0  0  0  0  0  0  0  0  0  0  0  0
   52.9220   50.0850   18.2040 O   0  0  0  0  0  0  0  0  0  0  0  0
   51.0520   54.5360   20.4660 C   0  0  0  0  0  0  0  0  0  0  0  0
   51.2670   54.0960   21.7640 C   0  0  0  0  0  0  0  0  0  0  0  0
   51.2440   52.7450   22.0480 C   0  0  0  0  0  0  0  0  0  0  0  0
   51.0020   51.8300   21.0390 C   0  0  0  0  0  0  0  0  0  0  0  0
   50.7930   52.2650   19.7440 C   0  0  0  0  0  0  0  0  0  0  0  0
   50.8150   53.6160   19.4550 C   0  0  0  0  0  0  0  0  0  0  0  0
   51.0740   55.8650   20.1850 O   0  0  0  0  0  0  0  0  0  0  0  0
   47.6800   58.0700   20.9860 C   0  0  0  0  0  0  0  0  0  0  0  0
   47.6870   57.1710   19.9360 C   0  0  0  0  0  0  0  0  0  0  0  0
   48.8210   56.4310   19.6660 C   0  0  0  0  0  0  0  0  0  0  0  0
   49.9560   56.5920   20.4500 C   0  0  0  0  0  0  0  0  0  0  0  0
   49.9450   57.4900   21.5060 C   0  0  0  0  0  0  0  0  0  0  0  0
   48.8080   58.2320   21.7690 C   0  0  0  0  0  0  0  0  0  0  0  0
   49.0730   51.3600   18.2030 C   0  0  0  0  0  0  0  0  0  0  0  0
   49.0140   51.6810   16.7320 C   0  0  0  0  0  0  0  0  0  0  0  0
   48.6380   52.7690   16.3660 O   0  0  0  0  0  0  0  0  0  0  0  0
   49.3770   50.7570   15.8280 O   0  0  0  0  0  0  0  0  0  0  0  0
   49.0550   49.3740   16.1310 C   0  0  0  0  0  0  0  0  0  0  0  0
   47.6050   49.1160   15.8120 C   0  0  0  0  0  0  0  0  0  0  0  0
   47.1800   49.3360   14.6970 O   0  0  0  0  0  0  0  0  0  0  0  0
   46.7040   48.5950   16.8510 C   0  0  0  0  0  0  0  0  0  0  0  0
   45.3490   48.3920   16.5690 C   0  0  0  0  0  0  0  0  0  0  0  0
   44.5120   47.8970   17.5470 C   0  0  0  0  0  0  0  0  0  0  0  0
   45.0070   47.6140   18.8090 C   0  0  0  0  0  0  0  0  0  0  0  0
   43.9440   46.9990   20.0360 Cl  0  0  0  0  0  0  0  0  0  0  0  0
   46.3470   47.8200   19.0970 C   0  0  0  0  0  0  0  0  0  0  0  0
   47.1970   48.3070   18.1280 C   0  0  0  0  0  0  0  0  0  0  0  0
  1  2  1  6  0  0  0
  1 13  1  0  0  0  0
  3  2  1  0  0  0  0
  4  2  1  0  0  0  0
  4  8  2  0  0  0  0
  5  4  1  0  0  0  0
  6  5  1  0  0  0  0
  7  5  1  0  0  0  0
  9 10  2  0  0  0  0
 10 11  1  0  0  0  0
 12 11  2  0  0  0  0
 13 12  1  0  0  0  0
 14 13  2  0  0  0  0
 14  9  1  0  0  0  0
 15 19  1  0  0  0  0
 15  9  1  0  0  0  0
 16 21  2  0  0  0  0
 17 16  1  0  0  0  0
 18 17  2  0  0  0  0
 18 19  1  0  0  0  0
 19 20  2  0  0  0  0
 20 21  1  0  0  0  0
 22  1  1  0  0  0  0
 23 22  1  0  0  0  0
 24 23  2  0  0  0  0
 25 26  1  0  0  0  0
 25 23  1  0  0  0  0
 27 26  1  0  0  0  0
 27 29  1  0  0  0  0
 28 27  2  0  0  0  0
 29 35  1  0  0  0  0
 30 29  2  0  0  0  0
 30 31  1  0  0  0  0
 31 32  2  0  0  0  0
 32 34  1  0  0  0  0
 32 33  1  0  0  0  0
 35 34  2  0  0  0  0
M  END
>  <MODEL>
3

>  <REMARK>
  Name = ZINC03286291
                            x       y       z     vdW  Elec       q    Type
                         _______ _______ _______ _____ _____    ______ ____

>  <TORSDO>
F 10

>  <minimizedAffinity>
-9.4618915971283375

$$$$
ZINC03286291
 OpenBabel10211213313D

 35 37  0  0  1  0  0  0  0  0999 V2000
   50.6880   51.6000   19.6220 C   0  0  1  0  0  0  0  0  0  0  0  0
   51.8220   50.6730   19.6360 N   0  0  0  0  0  0  0  0  0  0  0  0
   52.6830   50.9540   19.2870 H   0  0  0  0  0  0  0  0  0  0  0  0
   51.6690   49.4290   20.1320 C   0  0  0  0  0  0  0  0  0  0  0  0
   52.6790   48.5410   20.0470 N   0  0  0  0  0  0  0  0  0  0  0  0
   53.5150   48.7960   19.6260 H   0  0  0  0  0  0  0  0  0  0  0  0
   52.5690   47.6460   20.4050 H   0  0  0  0  0  0  0  0  0  0  0  0
   50.6190   49.1080   20.6560 O   0  0  0  0  0  0  0  0  0  0  0  0
   51.1850   55.1540   20.8080 C   0  0  0  0  0  0  0  0  0  0  0  0
   51.5640   54.9520   22.1270 C   0  0  0  0  0  0  0  0  0  0  0  0
   51.6580   53.6690   22.6300 C   0  0  0  0  0  0  0  0  0  0  0  0
   51.3690   52.5860   21.8200 C   0  0  0  0  0  0  0  0  0  0  0  0
   50.9970   52.7840   20.5040 C   0  0  0  0  0  0  0  0  0  0  0  0
   50.9010   54.0650   19.9960 C   0  0  0  0  0  0  0  0  0  0  0  0
   51.0910   56.4150   20.3120 O   0  0  0  0  0  0  0  0  0  0  0  0
   47.4030   58.2620   20.3970 C   0  0  0  0  0  0  0  0  0  0  0  0
   48.2510   58.3630   21.4840 C   0  0  0  0  0  0  0  0  0  0  0  0
   49.4860   57.7460   21.4580 C   0  0  0  0  0  0  0  0  0  0  0  0
   49.8760   57.0230   20.3390 C   0  0  0  0  0  0  0  0  0  0  0  0
   49.0260   56.9270   19.2470 C   0  0  0  0  0  0  0  0  0  0  0  0
   47.7890   57.5420   19.2800 C   0  0  0  0  0  0  0  0  0  0  0  0
   50.4400   52.0820   18.1910 C   0  0  0  0  0  0  0  0  0  0  0  0
   49.3250   51.2780   17.5760 C   0  0  0  0  0  0  0  0  0  0  0  0
   48.9840   51.4900   16.4370 O   0  0  0  0  0  0  0  0  0  0  0  0
   48.7080   50.3260   18.2950 O   0  0  0  0  0  0  0  0  0  0  0  0
   48.6490   48.9960   17.7140 C   0  0  0  0  0  0  0  0  0  0  0  0
   47.2290   48.4920   17.7590 C   0  0  0  0  0  0  0  0  0  0  0  0
   46.7070   48.2420   18.8250 O   0  0  0  0  0  0  0  0  0  0  0  0
   46.4750   48.3050   16.5100 C   0  0  0  0  0  0  0  0  0  0  0  0
   45.1260   47.9370   16.5520 C   0  0  0  0  0  0  0  0  0  0  0  0
   44.4240   47.7700   15.3780 C   0  0  0  0  0  0  0  0  0  0  0  0
   45.0540   47.9530   14.1580 C   0  0  0  0  0  0  0  0  0  0  0  0
   44.1640   47.7330   12.6840 Cl  0  0  0  0  0  0  0  0  0  0  0  0
   46.3920   48.3120   14.1090 C   0  0  0  0  0  0  0  0  0  0  0  0
   47.1050   48.4890   15.2750 C   0  0  0  0  0  0  0  0  0  0  0  0
  1 22  1  6  0  0  0
  1  2  1  0  0  0  0
  1 13  1  0  0  0  0
  2  4  1  0  0  0  0
  3  2  1  0  0  0  0
  4  8  2  0  0  0  0
  5  4  1  0  0  0  0
  5  7  1  0  0  0  0
  6  5  1  0  0  0  0
  9 10  2  0  0  0  0
 10 11  1  0  0  0  0
 12 11  2  0  0  0  0
 13 12  1  0  0  0  0
 14 13  2  0  0  0  0
 14  9  1  0  0  0  0
 15 19  1  0  0  0  0
 15  9  1  0  0  0  0
 16 17  2  0  0  0  0
 18 17  1  0  0  0  0
 19 18  2  0  0  0  0
 20 21  2  0  0  0  0
 20 19  1  0  0  0  0
 21 16  1  0  0  0  0
 23 22  1  0  0  0  0
 23 25  1  0  0  0  0
 24 23  2  0  0  0  0
 26 27  1  0  0  0  0
 26 25  1  0  0  0  0
 27 28  2  0  0  0  0
 29 30  1  0  0  0  0
 29 27  1  0  0  0  0
 31 30  2  0  0  0  0
 32 31  1  0  0  0  0
 33 32  1  0  0  0  0
 34 32  2  0  0  0  0
 34 35  1  0  0  0  0
 35 29  2  0  0  0  0
M  END
>  <MODEL>
4

>  <REMARK>
  Name = ZINC03286291
                            x       y       z     vdW  Elec       q    Type
                         _______ _______ _______ _____ _____    ______ ____

>  <TORSDO>
F 10

>  <minimizedAffinity>
-9.3109939211696595

$$$$
ZINC03286291
 OpenBabel10211213313D

 35 37  0  0  1  0  0  0  0  0999 V2000
   50.2140   50.4670   18.6830 C   0  0  1  0  0  0  0  0  0  0  0  0
   49.1050   50.9540   17.8590 N   0  0  0  0  0  0  0  0  0  0  0  0
   48.2980   51.2890   18.2820 H   0  0  0  0  0  0  0  0  0  0  0  0
   49.2050   50.9370   16.5150 C   0  0  0  0  0  0  0  0  0  0  0  0
   48.1470   51.2830   15.7560 N   0  0  0  0  0  0  0  0  0  0  0  0
   47.3120   51.5410   16.1770 H   0  0  0  0  0  0  0  0  0  0  0  0
   48.2190   51.2700   14.7890 H   0  0  0  0  0  0  0  0  0  0  0  0
   50.2510   50.6090   15.9880 O   0  0  0  0  0  0  0  0  0  0  0  0
   51.0690   53.8780   20.0680 C   0  0  0  0  0  0  0  0  0  0  0  0
   51.4710   53.5570   21.3570 C   0  0  0  0  0  0  0  0  0  0  0  0
   51.4650   52.2410   21.7740 C   0  0  0  0  0  0  0  0  0  0  0  0
   51.0540   51.2420   20.9100 C   0  0  0  0  0  0  0  0  0  0  0  0
   50.6580   51.5580   19.6240 C   0  0  0  0  0  0  0  0  0  0  0  0
   50.6610   52.8740   19.2010 C   0  0  0  0  0  0  0  0  0  0  0  0
   51.0740   55.1720   19.6560 O   0  0  0  0  0  0  0  0  0  0  0  0
   48.2280   57.7160   21.2230 C   0  0  0  0  0  0  0  0  0  0  0  0
   49.5190   57.7350   21.7170 C   0  0  0  0  0  0  0  0  0  0  0  0
   50.4730   56.8850   21.1950 C   0  0  0  0  0  0  0  0  0  0  0  0
   50.1360   56.0100   20.1710 C   0  0  0  0  0  0  0  0  0  0  0  0
   48.8420   55.9960   19.6730 C   0  0  0  0  0  0  0  0  0  0  0  0
   47.8890   56.8450   20.2020 C   0  0  0  0  0  0  0  0  0  0  0  0
   49.7550   49.2520   19.4910 C   0  0  0  0  0  0  0  0  0  0  0  0
   48.6510   48.5440   18.7500 C   0  0  0  0  0  0  0  0  0  0  0  0
   48.9150   47.8200   17.8200 O   0  0  0  0  0  0  0  0  0  0  0  0
   47.3720   48.7190   19.1220 O   0  0  0  0  0  0  0  0  0  0  0  0
   46.3610   48.0060   18.3610 C   0  0  0  0  0  0  0  0  0  0  0  0
   45.9070   48.8610   17.2060 C   0  0  0  0  0  0  0  0  0  0  0  0
   45.8950   50.0690   17.3140 O   0  0  0  0  0  0  0  0  0  0  0  0
   45.4810   48.2310   15.9470 C   0  0  0  0  0  0  0  0  0  0  0  0
   44.3270   47.4400   15.9130 C   0  0  0  0  0  0  0  0  0  0  0  0
   43.9300   46.8580   14.7280 C   0  0  0  0  0  0  0  0  0  0  0  0
   44.6770   47.0440   13.5770 C   0  0  0  0  0  0  0  0  0  0  0  0
   44.1730   46.3010   12.0910 Cl  0  0  0  0  0  0  0  0  0  0  0  0
   45.8240   47.8210   13.6050 C   0  0  0  0  0  0  0  0  0  0  0  0
   46.2300   48.4160   14.7810 C   0  0  0  0  0  0  0  0  0  0  0  0
  1  2  1  1  0  0  0
  1 22  1  0  0  0  0
  1 13  1  0  0  0  0
  2  3  1  0  0  0  0
  4  2  1  0  0  0  0
  5  6  1  0  0  0  0
  5  4  1  0  0  0  0
  7  5  1  0  0  0  0
  8  4  2  0  0  0  0
  9 10  2  0  0  0  0
 10 11  1  0  0  0  0
 12 11  2  0  0  0  0
 13 12  1  0  0  0  0
 14 13  2  0  0  0  0
 14  9  1  0  0  0  0
 15  9  1  0  0  0  0
 15 19  1  0  0  0  0
 16 17  1  0  0  0  0
 18 17  2  0  0  0  0
 19 18  1  0  0  0  0
 20 19  2  0  0  0  0
 20 21  1  0  0  0  0
 21 16  2  0  0  0  0
 23 25  1  0  0  0  0
 23 22  1  0  0  0  0
 24 23  2  0  0  0  0
 26 25  1  0  0  0  0
 27 28  2  0  0  0  0
 27 26  1  0  0  0  0
 29 27  1  0  0  0  0
 30 29  1  0  0  0  0
 31 30  2  0  0  0  0
 32 34  2  0  0  0  0
 32 31  1  0  0  0  0
 33 32  1  0  0  0  0
 34 35  1  0  0  0  0
 35 29  2  0  0  0  0
M  END
>  <MODEL>
5

>  <REMARK>
  Name = ZINC03286291
                            x       y       z     vdW  Elec       q    Type
                         _______ _______ _______ _____ _____    ______ ____

>  <TORSDO>
F 10

>  <minimizedAffinity>
-9.2524568116734383

$$$$
ZINC03286291
 OpenBabel10211213313D

 35 37  0  0  1  0  0  0  0  0999 V2000
   48.7540   49.6170   17.4260 C   0  0  1  0  0  0  0  0  0  0  0  0
   49.5590   48.8410   16.4800 N   0  0  0  0  0  0  0  0  0  0  0  0
   49.8160   47.9310   16.6940 H   0  0  0  0  0  0  0  0  0  0  0  0
   49.9440   49.3930   15.3120 C   0  0  0  0  0  0  0  0  0  0  0  0
   50.7740   48.7210   14.4900 N   0  0  0  0  0  0  0  0  0  0  0  0
   51.0960   47.8410   14.7400 H   0  0  0  0  0  0  0  0  0  0  0  0
   51.0500   49.1180   13.6490 H   0  0  0  0  0  0  0  0  0  0  0  0
   49.5430   50.4980   15.0000 O   0  0  0  0  0  0  0  0  0  0  0  0
   45.2640   48.4100   16.6210 C   0  0  0  0  0  0  0  0  0  0  0  0
   44.8950   47.8190   17.8200 C   0  0  0  0  0  0  0  0  0  0  0  0
   45.7740   47.8130   18.8850 C   0  0  0  0  0  0  0  0  0  0  0  0
   47.0230   48.3900   18.7560 C   0  0  0  0  0  0  0  0  0  0  0  0
   47.3920   48.9840   17.5630 C   0  0  0  0  0  0  0  0  0  0  0  0
   46.5170   48.9930   16.4940 C   0  0  0  0  0  0  0  0  0  0  0  0
   44.4020   48.4180   15.5710 O   0  0  0  0  0  0  0  0  0  0  0  0
   45.1320   45.8260   12.4460 C   0  0  0  0  0  0  0  0  0  0  0  0
   44.7190   45.3320   13.6690 C   0  0  0  0  0  0  0  0  0  0  0  0
   44.4740   46.1980   14.7170 C   0  0  0  0  0  0  0  0  0  0  0  0
   44.6420   47.5640   14.5410 C   0  0  0  0  0  0  0  0  0  0  0  0
   45.0520   48.0580   13.3110 C   0  0  0  0  0  0  0  0  0  0  0  0
   45.3010   47.1870   12.2670 C   0  0  0  0  0  0  0  0  0  0  0  0
   49.4470   49.6360   18.7900 C   0  0  0  0  0  0  0  0  0  0  0  0
   50.4750   50.7370   18.8160 C   0  0  0  0  0  0  0  0  0  0  0  0
   51.1580   50.9480   17.8420 O   0  0  0  0  0  0  0  0  0  0  0  0
   50.6320   51.4840   19.9210 O   0  0  0  0  0  0  0  0  0  0  0  0
   51.4430   52.6810   19.7970 C   0  0  0  0  0  0  0  0  0  0  0  0
   51.1980   53.5780   20.9830 C   0  0  0  0  0  0  0  0  0  0  0  0
   51.7380   53.3430   22.0440 O   0  0  0  0  0  0  0  0  0  0  0  0
   50.3050   54.7400   20.8550 C   0  0  0  0  0  0  0  0  0  0  0  0
   49.1740   54.6690   20.0340 C   0  0  0  0  0  0  0  0  0  0  0  0
   48.3380   55.7600   19.9240 C   0  0  0  0  0  0  0  0  0  0  0  0
   48.6230   56.9280   20.6120 C   0  0  0  0  0  0  0  0  0  0  0  0
   47.5680   58.2980   20.4610 Cl  0  0  0  0  0  0  0  0  0  0  0  0
   49.7440   57.0070   21.4220 C   0  0  0  0  0  0  0  0  0  0  0  0
   50.5860   55.9220   21.5480 C   0  0  0  0  0  0  0  0  0  0  0  0
  1  2  1  1  0  0  0
  1 13  1  0  0  0  0
  1 22  1  0  0  0  0
  2  3  1  0  0  0  0
  4  2  1  0  0  0  0
  5  6  1  0  0  0  0
  5  4  1  0  0  0  0
  7  5  1  0  0  0  0
  8  4  2  0  0  0  0
  9 10  1  0  0  0  0
 10 11  2  0  0  0  0
 12 11  1  0  0  0  0
 13 12  2  0  0  0  0
 14  9  2  0  0  0  0
 14 13  1  0  0  0  0
 15  9  1  0  0  0  0
 16 17  1  0  0  0  0
 17 18  2  0  0  0  0
 19 18  1  0  0  0  0
 19 15  1  0  0  0  0
 20 19  2  0  0  0  0
 21 16  2  0  0  0  0
 21 20  1  0  0  0  0
 22 23  1  0  0  0  0
 23 25  1  0  0  0  0
 24 23  2  0  0  0  0
 26 25  1  0  0  0  0
 26 27  1  0  0  0  0
 27 28  2  0  0  0  0
 29 27  1  0  0  0  0
 29 35  2  0  0  0  0
 30 29  1  0  0  0  0
 31 30  2  0  0  0  0
 31 32  1  0  0  0  0
 32 34  2  0  0  0  0
 33 32  1  0  0  0  0
 34 35  1  0  0  0  0
M  END
>  <MODEL>
6

>  <REMARK>
  Name = ZINC03286291
                            x       y       z     vdW  Elec       q    Type
                         _______ _______ _______ _____ _____    ______ ____

>  <TORSDO>
F 10

>  <minimizedAffinity>
-9.217597677474199

$$$$
ZINC03286291
 OpenBabel10211213313D

 35 37  0  0  1  0  0  0  0  0999 V2000
   49.6050   50.2990   18.4510 C   0  0  1  0  0  0  0  0  0  0  0  0
   51.0420   50.1770   18.7120 N   0  0  0  0  0  0  0  0  0  0  0  0
   51.6760   50.6840   18.1800 H   0  0  0  0  0  0  0  0  0  0  0  0
   51.4830   49.3610   19.6900 C   0  0  0  0  0  0  0  0  0  0  0  0
   52.8050   49.1650   19.8590 N   0  0  0  0  0  0  0  0  0  0  0  0
   53.4400   49.6100   19.2760 H   0  0  0  0  0  0  0  0  0  0  0  0
   53.1220   48.5770   20.5630 H   0  0  0  0  0  0  0  0  0  0  0  0
   50.6860   48.8000   20.4180 O   0  0  0  0  0  0  0  0  0  0  0  0
   49.6840   54.0760   18.3590 C   0  0  0  0  0  0  0  0  0  0  0  0
   48.6750   54.3490   17.4460 C   0  0  0  0  0  0  0  0  0  0  0  0
   47.9730   53.3120   16.8630 C   0  0  0  0  0  0  0  0  0  0  0  0
   48.2780   52.0020   17.1840 C   0  0  0  0  0  0  0  0  0  0  0  0
   49.2790   51.7280   18.0980 C   0  0  0  0  0  0  0  0  0  0  0  0
   49.9840   52.7610   18.6840 C   0  0  0  0  0  0  0  0  0  0  0  0
   50.3760   55.0940   18.9330 O   0  0  0  0  0  0  0  0  0  0  0  0
   48.2850   57.7990   21.2420 C   0  0  0  0  0  0  0  0  0  0  0  0
   49.5190   57.3400   21.6640 C   0  0  0  0  0  0  0  0  0  0  0  0
   50.2210   56.4340   20.8930 C   0  0  0  0  0  0  0  0  0  0  0  0
   49.6860   55.9850   19.6930 C   0  0  0  0  0  0  0  0  0  0  0  0
   48.4510   56.4520   19.2690 C   0  0  0  0  0  0  0  0  0  0  0  0
   47.7500   57.3540   20.0460 C   0  0  0  0  0  0  0  0  0  0  0  0
   49.2190   49.3840   17.2860 C   0  0  0  0  0  0  0  0  0  0  0  0
   48.4590   48.1950   17.8120 C   0  0  0  0  0  0  0  0  0  0  0  0
   48.7150   47.0870   17.4050 O   0  0  0  0  0  0  0  0  0  0  0  0
   47.4960   48.3670   18.7320 O   0  0  0  0  0  0  0  0  0  0  0  0
   46.1640   47.9040   18.3860 C   0  0  0  0  0  0  0  0  0  0  0  0
   45.6030   48.7670   17.2850 C   0  0  0  0  0  0  0  0  0  0  0  0
   45.3610   49.9370   17.4950 O   0  0  0  0  0  0  0  0  0  0  0  0
   45.3500   48.1910   15.9550 C   0  0  0  0  0  0  0  0  0  0  0  0
   44.2240   47.3900   15.7390 C   0  0  0  0  0  0  0  0  0  0  0  0
   43.9900   46.8600   14.4890 C   0  0  0  0  0  0  0  0  0  0  0  0
   44.8740   47.1070   13.4510 C   0  0  0  0  0  0  0  0  0  0  0  0
   44.5750   46.4280   11.8810 Cl  0  0  0  0  0  0  0  0  0  0  0  0
   45.9940   47.8950   13.6590 C   0  0  0  0  0  0  0  0  0  0  0  0
   46.2380   48.4380   14.9030 C   0  0  0  0  0  0  0  0  0  0  0  0
  1 22  1  6  0  0  0
  1  2  1  0  0  0  0
  2  4  1  0  0  0  0
  3  2  1  0  0  0  0
  4  5  1  0  0  0  0
  4  8  2  0  0  0  0
  5  7  1  0  0  0  0
  6  5  1  0  0  0  0
  9 14  1  0  0  0  0
  9 15  1  0  0  0  0
 10  9  2  0  0  0  0
 11 12  2  0  0  0  0
 11 10  1  0  0  0  0
 12 13  1  0  0  0  0
 13  1  1  0  0  0  0
 13 14  2  0  0  0  0
 15 19  1  0  0  0  0
 16 17  1  0  0  0  0
 18 17  2  0  0  0  0
 19 18  1  0  0  0  0
 20 19  2  0  0  0  0
 20 21  1  0  0  0  0
 21 16  2  0  0  0  0
 22 23  1  0  0  0  0
 23 25  1  0  0  0  0
 24 23  2  0  0  0  0
 26 25  1  0  0  0  0
 27 28  2  0  0  0  0
 27 26  1  0  0  0  0
 29 27  1  0  0  0  0
 30 29  1  0  0  0  0
 31 30  2  0  0  0  0
 32 34  2  0  0  0  0
 32 31  1  0  0  0  0
 33 32  1  0  0  0  0
 34 35  1  0  0  0  0
 35 29  2  0  0  0  0
M  END
>  <MODEL>
7

>  <REMARK>
  Name = ZINC03286291
                            x       y       z     vdW  Elec       q    Type
                         _______ _______ _______ _____ _____    ______ ____

>  <TORSDO>
F 10

>  <minimizedAffinity>
-9.0923127363202383

$$$$
ZINC03286291
 OpenBabel10211213313D

 35 37  0  0  1  0  0  0  0  0999 V2000
   49.7520   54.4690   19.6460 C   0  0  1  0  0  0  0  0  0  0  0  0
   50.0900   53.6850   20.8360 N   0  0  0  0  0  0  0  0  0  0  0  0
   49.4270   53.1020   21.2370 H   0  0  0  0  0  0  0  0  0  0  0  0
   51.3230   53.7740   21.3740 C   0  0  0  0  0  0  0  0  0  0  0  0
   51.6020   53.1380   22.5280 N   0  0  0  0  0  0  0  0  0  0  0  0
   50.9150   52.6180   22.9740 H   0  0  0  0  0  0  0  0  0  0  0  0
   52.4890   53.2030   22.9150 H   0  0  0  0  0  0  0  0  0  0  0  0
   52.1830   54.4290   20.8170 O   0  0  0  0  0  0  0  0  0  0  0  0
   49.2630   51.3630   17.5500 C   0  0  0  0  0  0  0  0  0  0  0  0
   48.4600   51.8450   16.5270 C   0  0  0  0  0  0  0  0  0  0  0  0
   48.0780   53.1730   16.5170 C   0  0  0  0  0  0  0  0  0  0  0  0
   48.4920   54.0190   17.5290 C   0  0  0  0  0  0  0  0  0  0  0  0
   49.2970   53.5430   18.5460 C   0  0  0  0  0  0  0  0  0  0  0  0
   49.6820   52.2150   18.5610 C   0  0  0  0  0  0  0  0  0  0  0  0
   49.6390   50.0570   17.5620 O   0  0  0  0  0  0  0  0  0  0  0  0
   46.6790   47.1870   17.4160 C   0  0  0  0  0  0  0  0  0  0  0  0
   46.6870   48.1200   18.4370 C   0  0  0  0  0  0  0  0  0  0  0  0
   47.6770   49.0810   18.4880 C   0  0  0  0  0  0  0  0  0  0  0  0
   48.6640   49.1120   17.5130 C   0  0  0  0  0  0  0  0  0  0  0  0
   48.6510   48.1790   16.4870 C   0  0  0  0  0  0  0  0  0  0  0  0
   47.6620   47.2150   16.4430 C   0  0  0  0  0  0  0  0  0  0  0  0
   48.6260   55.4500   19.9840 C   0  0  0  0  0  0  0  0  0  0  0  0
   49.2180   56.7320   20.5060 C   0  0  0  0  0  0  0  0  0  0  0  0
   49.8420   56.7330   21.5400 O   0  0  0  0  0  0  0  0  0  0  0  0
   49.0520   57.8760   19.8220 O   0  0  0  0  0  0  0  0  0  0  0  0
   47.6870   58.3160   19.5940 C   0  0  0  0  0  0  0  0  0  0  0  0
   47.6180   59.0920   18.3040 C   0  0  0  0  0  0  0  0  0  0  0  0
   47.9310   60.2640   18.2840 O   0  0  0  0  0  0  0  0  0  0  0  0
   47.1740   58.4280   17.0690 C   0  0  0  0  0  0  0  0  0  0  0  0
   46.0080   58.8540   16.4240 C   0  0  0  0  0  0  0  0  0  0  0  0
   45.6020   58.2320   15.2620 C   0  0  0  0  0  0  0  0  0  0  0  0
   46.3370   57.1790   14.7420 C   0  0  0  0  0  0  0  0  0  0  0  0
   45.8130   56.3970   13.2830 Cl  0  0  0  0  0  0  0  0  0  0  0  0
   47.4900   56.7490   15.3790 C   0  0  0  0  0  0  0  0  0  0  0  0
   47.9130   57.3660   16.5380 C   0  0  0  0  0  0  0  0  0  0  0  0
  1 13  1  1  0  0  0
  1 22  1  0  0  0  0
  1  2  1  0  0  0  0
  2  3  1  0  0  0  0
  2  4  1  0  0  0  0
  4  5  1  0  0  0  0
  5  7  1  0  0  0  0
  5  6  1  0  0  0  0
  8  4  2  0  0  0  0
  9 15  1  0  0  0  0
  9 14  2  0  0  0  0
 10  9  1  0  0  0  0
 11 10  2  0  0  0  0
 11 12  1  0  0  0  0
 12 13  2  0  0  0  0
 13 14  1  0  0  0  0
 16 17  2  0  0  0  0
 17 18  1  0  0  0  0
 19 15  1  0  0  0  0
 19 18  2  0  0  0  0
 20 19  1  0  0  0  0
 21 20  2  0  0  0  0
 21 16  1  0  0  0  0
 22 23  1  0  0  0  0
 23 24  2  0  0  0  0
 25 23  1  0  0  0  0
 26 25  1  0  0  0  0
 27 26  1  0  0  0  0
 28 27  2  0  0  0  0
 29 27  1  0  0  0  0
 30 29  2  0  0  0  0
 31 30  1  0  0  0  0
 32 31  2  0  0  0  0
 32 34  1  0  0  0  0
 33 32  1  0  0  0  0
 34 35  2  0  0  0  0
 35 29  1  0  0  0  0
M  END
>  <MODEL>
8

>  <REMARK>
  Name = ZINC03286291
                            x       y       z     vdW  Elec       q    Type
                         _______ _______ _______ _____ _____    ______ ____

>  <TORSDO>
F 10

>  <minimizedAffinity>
-9.0589744794670679

$$$$
ZINC03286291
 OpenBabel10211213313D

 35 37  0  0  1  0  0  0  0  0999 V2000
   49.7420   54.5290   19.6080 C   0  0  1  0  0  0  0  0  0  0  0  0
   50.0810   53.6890   20.7590 N   0  0  0  0  0  0  0  0  0  0  0  0
   49.3930   53.1620   21.1940 H   0  0  0  0  0  0  0  0  0  0  0  0
   51.3500   53.6490   21.2140 C   0  0  0  0  0  0  0  0  0  0  0  0
   51.6420   52.9630   22.3360 N   0  0  0  0  0  0  0  0  0  0  0  0
   50.9390   52.5000   22.8180 H   0  0  0  0  0  0  0  0  0  0  0  0
   52.5550   52.9340   22.6630 H   0  0  0  0  0  0  0  0  0  0  0  0
   52.2300   54.2330   20.6110 O   0  0  0  0  0  0  0  0  0  0  0  0
   49.2050   51.5380   17.3610 C   0  0  0  0  0  0  0  0  0  0  0  0
   48.3510   52.0640   16.4030 C   0  0  0  0  0  0  0  0  0  0  0  0
   47.9510   53.3830   16.4860 C   0  0  0  0  0  0  0  0  0  0  0  0
   48.3970   54.1780   17.5250 C   0  0  0  0  0  0  0  0  0  0  0  0
   49.2530   53.6580   18.4780 C   0  0  0  0  0  0  0  0  0  0  0  0
   49.6560   52.3390   18.4010 C   0  0  0  0  0  0  0  0  0  0  0  0
   49.6000   50.2400   17.2820 O   0  0  0  0  0  0  0  0  0  0  0  0
   46.6870   47.3200   17.3760 C   0  0  0  0  0  0  0  0  0  0  0  0
   47.5540   47.3950   16.3020 C   0  0  0  0  0  0  0  0  0  0  0  0
   48.5300   48.3720   16.2680 C   0  0  0  0  0  0  0  0  0  0  0  0
   48.6400   49.2780   17.3140 C   0  0  0  0  0  0  0  0  0  0  0  0
   47.7730   49.1970   18.3930 C   0  0  0  0  0  0  0  0  0  0  0  0
   46.7940   48.2210   18.4200 C   0  0  0  0  0  0  0  0  0  0  0  0
   48.6420   55.5170   20.0030 C   0  0  0  0  0  0  0  0  0  0  0  0
   49.2660   56.7420   20.6180 C   0  0  0  0  0  0  0  0  0  0  0  0
   49.9760   56.6350   21.5900 O   0  0  0  0  0  0  0  0  0  0  0  0
   49.0320   57.9530   20.0880 O   0  0  0  0  0  0  0  0  0  0  0  0
   47.6480   58.3830   20.0080 C   0  0  0  0  0  0  0  0  0  0  0  0
   47.3820   58.9710   18.6460 C   0  0  0  0  0  0  0  0  0  0  0  0
   47.6660   58.3430   17.6480 O   0  0  0  0  0  0  0  0  0  0  0  0
   46.7780   60.3060   18.5270 C   0  0  0  0  0  0  0  0  0  0  0  0
   46.0300   60.6400   17.3920 C   0  0  0  0  0  0  0  0  0  0  0  0
   45.4600   61.8910   17.2910 C   0  0  0  0  0  0  0  0  0  0  0  0
   45.6380   62.8220   18.3010 C   0  0  0  0  0  0  0  0  0  0  0  0
   44.9240   64.3980   18.1610 Cl  0  0  0  0  0  0  0  0  0  0  0  0
   46.3830   62.5000   19.4250 C   0  0  0  0  0  0  0  0  0  0  0  0
   46.9530   61.2500   19.5440 C   0  0  0  0  0  0  0  0  0  0  0  0
  1 13  1  1  0  0  0
  1 22  1  0  0  0  0
  1  2  1  0  0  0  0
  2  3  1  0  0  0  0
  2  4  1  0  0  0  0
  4  5  1  0  0  0  0
  5  7  1  0  0  0  0
  5  6  1  0  0  0  0
  8  4  2  0  0  0  0
  9 14  2  0  0  0  0
 10 11  2  0  0  0  0
 10  9  1  0  0  0  0
 11 12  1  0  0  0  0
 12 13  2  0  0  0  0
 14 13  1  0  0  0  0
 15 19  1  0  0  0  0
 15  9  1  0  0  0  0
 16 21  2  0  0  0  0
 17 16  1  0  0  0  0
 18 17  2  0  0  0  0
 18 19  1  0  0  0  0
 19 20  2  0  0  0  0
 20 21  1  0  0  0  0
 22 23  1  0  0  0  0
 23 24  2  0  0  0  0
 25 23  1  0  0  0  0
 26 25  1  0  0  0  0
 27 26  1  0  0  0  0
 28 27  2  0  0  0  0
 29 27  1  0  0  0  0
 29 35  2  0  0  0  0
 30 29  1  0  0  0  0
 31 30  2  0  0  0  0
 31 32  1  0  0  0  0
 32 34  2  0  0  0  0
 33 32  1  0  0  0  0
 34 35  1  0  0  0  0
M  END
>  <MODEL>
9

>  <REMARK>
  Name = ZINC03286291
                            x       y       z     vdW  Elec       q    Type
                         _______ _______ _______ _____ _____    ______ ____

>  <TORSDO>
F 10

>  <minimizedAffinity>
-8.9361906838188379

$$$$
ZINC08765061
 OpenBabel10211213343D

 34 36  0  0  1  0  0  0  0  0999 V2000
   50.9360   51.0190   17.7180 C   0  0  1  0  0  0  0  0  0  0  0  0
   50.4610   52.1870   18.5600 C   0  0  0  0  0  0  0  0  0  0  0  0
   51.1820   52.1330   19.6980 N   0  0  0  0  0  0  0  0  0  0  0  0
   52.0380   51.1040   19.6910 C   0  0  0  0  0  0  0  0  0  0  0  0
   52.7950   50.8490   20.6070 O   0  0  0  0  0  0  0  0  0  0  0  0
   49.6100   53.0000   18.2710 O   0  0  0  0  0  0  0  0  0  0  0  0
   51.9690   50.3810   18.5540 N   0  0  0  0  0  0  0  0  0  0  0  0
   52.4920   49.5960   18.3300 H   0  0  0  0  0  0  0  0  0  0  0  0
   49.7860   50.0480   17.4480 C   0  0  0  0  0  0  0  0  0  0  0  0
   49.2970   50.2230   16.0080 C   0  0  0  0  0  0  0  0  0  0  0  0
   47.3600   49.0420   15.0240 N   0  0  0  0  0  0  0  0  0  0  0  0
   46.9240   49.9030   14.9280 H   0  0  0  0  0  0  0  0  0  0  0  0
   48.5940   48.9680   15.5600 C   0  0  0  0  0  0  0  0  0  0  0  0
   49.1390   47.8910   15.6810 O   0  0  0  0  0  0  0  0  0  0  0  0
   45.6980   48.1610   13.4620 C   0  0  0  0  0  0  0  0  0  0  0  0
   46.6760   47.8220   14.5890 C   0  0  2  0  0  0  0  0  0  0  0  0
   45.9080   47.2200   15.7680 C   0  0  0  0  0  0  0  0  0  0  0  0
   44.7110   48.1100   16.1050 C   0  0  0  0  0  0  0  0  0  0  0  0
   44.8600   48.6470   17.5290 C   0  0  0  0  0  0  0  0  0  0  0  0
   45.7340   47.6920   18.3460 C   0  0  0  0  0  0  0  0  0  0  0  0
   44.9230   47.1370   19.5200 C   0  0  0  0  0  0  0  0  0  0  0  0
   46.9530   48.4470   18.8800 C   0  0  0  0  0  0  0  0  0  0  0  0
   51.0470   53.0840   20.8040 C   0  0  0  0  0  0  0  0  0  0  0  0
   51.9090   54.3160   20.5250 C   0  0  0  0  0  0  0  0  0  0  0  0
   51.3200   55.5120   21.2300 C   0  0  0  0  0  0  0  0  0  0  0  0
   51.8530   56.1650   22.2730 C   0  0  0  0  0  0  0  0  0  0  0  0
   51.0370   57.2010   22.6410 N   0  0  0  0  0  0  0  0  0  0  0  0
   51.2140   57.8180   23.3680 H   0  0  0  0  0  0  0  0  0  0  0  0
   49.9270   57.2340   21.8280 C   0  0  0  0  0  0  0  0  0  0  0  0
   48.8070   58.0560   21.7690 C   0  0  0  0  0  0  0  0  0  0  0  0
   47.8390   57.8280   20.8150 C   0  0  0  0  0  0  0  0  0  0  0  0
   47.9710   56.7840   19.9100 C   0  0  0  0  0  0  0  0  0  0  0  0
   49.0630   55.9630   19.9500 C   0  0  0  0  0  0  0  0  0  0  0  0
   50.0550   56.1770   20.9080 C   0  0  0  0  0  0  0  0  0  0  0  0
  1  9  1  1  0  0  0
  1  7  1  0  0  0  0
  1  2  1  0  0  0  0
  2  3  1  0  0  0  0
  3 23  1  0  0  0  0
  4  3  1  0  0  0  0
  4  5  2  0  0  0  0
  6  2  2  0  0  0  0
  7  4  1  0  0  0  0
  8  7  1  0  0  0  0
 10  9  1  0  0  0  0
 11 13  1  0  0  0  0
 12 11  1  0  0  0  0
 13 14  2  0  0  0  0
 13 10  1  0  0  0  0
 16 15  1  1  0  0  0
 16 11  1  0  0  0  0
 16 17  1  0  0  0  0
 17 18  1  0  0  0  0
 18 19  1  0  0  0  0
 19 20  1  0  0  0  0
 20 22  1  0  0  0  0
 20 21  1  0  0  0  0
 24 23  1  0  0  0  0
 24 25  1  0  0  0  0
 25 26  2  0  0  0  0
 26 27  1  0  0  0  0
 27 28  1  0  0  0  0
 29 27  1  0  0  0  0
 30 29  1  0  0  0  0
 31 30  2  0  0  0  0
 32 33  2  0  0  0  0
 32 31  1  0  0  0  0
 33 34  1  0  0  0  0
 34 25  1  0  0  0  0
 34 29  2  0  0  0  0
M  END
>  <MODEL>
1

>  <REMARK>
  Name = ZINC08765061
                            x       y       z     vdW  Elec       q    Type
                         _______ _______ _______ _____ _____    ______ ____

>  <TORSDO>
F 11

>  <minimizedAffinity>
-9.7697074559054844

$$$$
ZINC08765061
 OpenBabel10211213343D

 34 36  0  0  1  0  0  0  0  0999 V2000
   52.8040   50.5820   20.2600 C   0  0  1  0  0  0  0  0  0  0  0  0
   52.2610   51.6520   19.3340 C   0  0  0  0  0  0  0  0  0  0  0  0
   51.7210   52.5900   20.1370 N   0  0  0  0  0  0  0  0  0  0  0  0
   51.8460   52.2650   21.4290 C   0  0  0  0  0  0  0  0  0  0  0  0
   51.4370   52.9550   22.3420 O   0  0  0  0  0  0  0  0  0  0  0  0
   52.3030   51.6620   18.1220 O   0  0  0  0  0  0  0  0  0  0  0  0
   52.4800   51.0870   21.6060 N   0  0  0  0  0  0  0  0  0  0  0  0
   52.6810   50.6560   22.4510 H   0  0  0  0  0  0  0  0  0  0  0  0
   52.1070   49.2450   20.0050 C   0  0  0  0  0  0  0  0  0  0  0  0
   50.6210   49.3700   20.3500 C   0  0  0  0  0  0  0  0  0  0  0  0
   49.3960   50.1700   18.3550 N   0  0  0  0  0  0  0  0  0  0  0  0
   49.6380   51.0740   18.6080 H   0  0  0  0  0  0  0  0  0  0  0  0
   49.7950   49.1280   19.1120 C   0  0  0  0  0  0  0  0  0  0  0  0
   49.4910   47.9970   18.7980 O   0  0  0  0  0  0  0  0  0  0  0  0
   49.3500   50.4530   15.9270 C   0  0  0  0  0  0  0  0  0  0  0  0
   48.5940   49.9350   17.1520 C   0  0  2  0  0  0  0  0  0  0  0  0
   47.2580   50.6720   17.2780 C   0  0  0  0  0  0  0  0  0  0  0  0
   46.1150   49.6570   17.2900 C   0  0  0  0  0  0  0  0  0  0  0  0
   46.3610   48.6250   18.3920 C   0  0  0  0  0  0  0  0  0  0  0  0
   45.4660   47.4050   18.1590 C   0  0  0  0  0  0  0  0  0  0  0  0
   44.5200   47.6840   16.9890 C   0  0  0  0  0  0  0  0  0  0  0  0
   44.6480   47.1250   19.4210 C   0  0  0  0  0  0  0  0  0  0  0  0
   51.0780   53.8150   19.6550 C   0  0  0  0  0  0  0  0  0  0  0  0
   52.0560   54.9860   19.7770 C   0  0  0  0  0  0  0  0  0  0  0  0
   51.4890   56.0190   20.7170 C   0  0  0  0  0  0  0  0  0  0  0  0
   52.1110   56.5620   21.7750 C   0  0  0  0  0  0  0  0  0  0  0  0
   51.2870   57.4660   22.3870 N   0  0  0  0  0  0  0  0  0  0  0  0
   51.5170   57.9870   23.1720 H   0  0  0  0  0  0  0  0  0  0  0  0
   50.0790   57.5210   21.7280 C   0  0  0  0  0  0  0  0  0  0  0  0
   48.9110   58.2490   21.9270 C   0  0  0  0  0  0  0  0  0  0  0  0
   47.8440   58.0770   21.0730 C   0  0  0  0  0  0  0  0  0  0  0  0
   47.9220   57.1830   20.0140 C   0  0  0  0  0  0  0  0  0  0  0  0
   49.0600   56.4580   19.7990 C   0  0  0  0  0  0  0  0  0  0  0  0
   50.1530   56.6160   20.6520 C   0  0  0  0  0  0  0  0  0  0  0  0
  1  9  1  1  0  0  0
  1  7  1  0  0  0  0
  2  3  1  0  0  0  0
  2  1  1  0  0  0  0
  3  4  1  0  0  0  0
  4  7  1  0  0  0  0
  4  5  2  0  0  0  0
  6  2  2  0  0  0  0
  7  8  1  0  0  0  0
  9 10  1  0  0  0  0
 11 12  1  0  0  0  0
 11 13  1  0  0  0  0
 13 10  1  0  0  0  0
 14 13  2  0  0  0  0
 16 15  1  1  0  0  0
 16 17  1  0  0  0  0
 16 11  1  0  0  0  0
 17 18  1  0  0  0  0
 18 19  1  0  0  0  0
 20 19  1  0  0  0  0
 20 22  1  0  0  0  0
 21 20  1  0  0  0  0
 23 24  1  0  0  0  0
 23  3  1  0  0  0  0
 24 25  1  0  0  0  0
 25 26  2  0  0  0  0
 26 27  1  0  0  0  0
 27 28  1  0  0  0  0
 29 30  1  0  0  0  0
 29 27  1  0  0  0  0
 31 30  2  0  0  0  0
 32 31  1  0  0  0  0
 33 32  2  0  0  0  0
 33 34  1  0  0  0  0
 34 25  1  0  0  0  0
 34 29  2  0  0  0  0
M  END
>  <MODEL>
2

>  <REMARK>
  Name = ZINC08765061
                            x       y       z     vdW  Elec       q    Type
                         _______ _______ _______ _____ _____    ______ ____

>  <TORSDO>
F 11

>  <minimizedAffinity>
-9.6618635390417484

$$$$
ZINC08765061
 OpenBabel10211213343D

 34 36  0  0  1  0  0  0  0  0999 V2000
   51.1390   51.2700   18.8540 C   0  0  1  0  0  0  0  0  0  0  0  0
   50.3280   50.0470   19.2350 C   0  0  0  0  0  0  0  0  0  0  0  0
   49.6350   49.7100   18.1290 N   0  0  0  0  0  0  0  0  0  0  0  0
   49.8930   50.5410   17.1130 C   0  0  0  0  0  0  0  0  0  0  0  0
   49.3880   50.4410   16.0130 O   0  0  0  0  0  0  0  0  0  0  0  0
   50.3070   49.4880   20.3110 O   0  0  0  0  0  0  0  0  0  0  0  0
   50.7790   51.5040   17.4450 N   0  0  0  0  0  0  0  0  0  0  0  0
   51.1120   52.2110   16.8710 H   0  0  0  0  0  0  0  0  0  0  0  0
   50.7420   52.4680   19.7180 C   0  0  0  0  0  0  0  0  0  0  0  0
   51.9990   53.0960   20.3270 C   0  0  0  0  0  0  0  0  0  0  0  0
   52.1800   55.4960   20.8990 N   0  0  0  0  0  0  0  0  0  0  0  0
   52.2130   55.2380   21.8330 H   0  0  0  0  0  0  0  0  0  0  0  0
   52.0690   54.5520   19.9430 C   0  0  0  0  0  0  0  0  0  0  0  0
   52.0250   54.8740   18.7740 O   0  0  0  0  0  0  0  0  0  0  0  0
   53.6970   57.3940   20.6220 C   0  0  0  0  0  0  0  0  0  0  0  0
   52.2480   56.9110   20.5260 C   0  0  2  0  0  0  0  0  0  0  0  0
   51.3710   57.7310   21.4750 C   0  0  0  0  0  0  0  0  0  0  0  0
   50.0310   57.0220   21.6710 C   0  0  0  0  0  0  0  0  0  0  0  0
   48.9020   58.0550   21.6660 C   0  0  0  0  0  0  0  0  0  0  0  0
   47.8050   57.6070   20.6980 C   0  0  0  0  0  0  0  0  0  0  0  0
   48.2260   56.3010   20.0190 C   0  0  0  0  0  0  0  0  0  0  0  0
   47.5900   58.6870   19.6360 C   0  0  0  0  0  0  0  0  0  0  0  0
   48.7150   48.5730   18.0490 C   0  0  0  0  0  0  0  0  0  0  0  0
   47.3250   49.0090   18.5160 C   0  0  0  0  0  0  0  0  0  0  0  0
   46.2810   48.1230   17.8850 C   0  0  0  0  0  0  0  0  0  0  0  0
   45.4150   47.3260   18.5300 C   0  0  0  0  0  0  0  0  0  0  0  0
   44.6170   46.6780   17.6280 N   0  0  0  0  0  0  0  0  0  0  0  0
   43.9130   46.0500   17.8560 H   0  0  0  0  0  0  0  0  0  0  0  0
   44.9650   47.0430   16.3470 C   0  0  0  0  0  0  0  0  0  0  0  0
   44.4930   46.6880   15.0880 C   0  0  0  0  0  0  0  0  0  0  0  0
   45.0640   47.2410   13.9620 C   0  0  0  0  0  0  0  0  0  0  0  0
   46.1070   48.1500   14.0710 C   0  0  0  0  0  0  0  0  0  0  0  0
   46.5870   48.5130   15.2980 C   0  0  0  0  0  0  0  0  0  0  0  0
   46.0230   47.9650   16.4510 C   0  0  0  0  0  0  0  0  0  0  0  0
  1  2  1  0  0  0  0
  1  9  1  6  0  0  0
  2  6  2  0  0  0  0
  3  2  1  0  0  0  0
  4  7  1  0  0  0  0
  4  3  1  0  0  0  0
  5  4  2  0  0  0  0
  7  1  1  0  0  0  0
  8  7  1  0  0  0  0
  9 10  1  0  0  0  0
 11 12  1  0  0  0  0
 13 10  1  0  0  0  0
 13 11  1  0  0  0  0
 14 13  2  0  0  0  0
 16 15  1  1  0  0  0
 16 11  1  0  0  0  0
 16 17  1  0  0  0  0
 17 18  1  0  0  0  0
 19 18  1  0  0  0  0
 20 19  1  0  0  0  0
 21 20  1  0  0  0  0
 22 20  1  0  0  0  0
 23  3  1  0  0  0  0
 23 24  1  0  0  0  0
 25 24  1  0  0  0  0
 25 26  2  0  0  0  0
 27 28  1  0  0  0  0
 27 26  1  0  0  0  0
 29 34  1  0  0  0  0
 29 27  1  0  0  0  0
 30 29  2  0  0  0  0
 31 32  2  0  0  0  0
 31 30  1  0  0  0  0
 32 33  1  0  0  0  0
 33 34  2  0  0  0  0
 34 25  1  0  0  0  0
M  END
>  <MODEL>
3

>  <REMARK>
  Name = ZINC08765061
                            x       y       z     vdW  Elec       q    Type
                         _______ _______ _______ _____ _____    ______ ____

>  <TORSDO>
F 11

>  <minimizedAffinity>
-9.5026999145679554

$$$$
ZINC08765061
 OpenBabel10211213343D

 34 36  0  0  1  0  0  0  0  0999 V2000
   50.5570   50.5820   18.2330 C   0  0  1  0  0  0  0  0  0  0  0  0
   50.6160   52.0570   18.5790 C   0  0  0  0  0  0  0  0  0  0  0  0
   51.6710   52.1960   19.4060 N   0  0  0  0  0  0  0  0  0  0  0  0
   52.2810   51.0260   19.6280 C   0  0  0  0  0  0  0  0  0  0  0  0
   53.2570   50.8980   20.3400 O   0  0  0  0  0  0  0  0  0  0  0  0
   49.8690   52.9300   18.1920 O   0  0  0  0  0  0  0  0  0  0  0  0
   51.6940   50.0040   18.9720 N   0  0  0  0  0  0  0  0  0  0  0  0
   51.9630   49.0720   18.9840 H   0  0  0  0  0  0  0  0  0  0  0  0
   49.2390   49.9700   18.7080 C   0  0  0  0  0  0  0  0  0  0  0  0
   48.6620   49.0810   17.6030 C   0  0  0  0  0  0  0  0  0  0  0  0
   46.4800   47.9750   17.9720 N   0  0  0  0  0  0  0  0  0  0  0  0
   46.9630   47.1500   18.1350 H   0  0  0  0  0  0  0  0  0  0  0  0
   47.1560   49.1030   17.6760 C   0  0  0  0  0  0  0  0  0  0  0  0
   46.5540   50.1350   17.4690 O   0  0  0  0  0  0  0  0  0  0  0  0
   44.5540   47.1750   19.2490 C   0  0  0  0  0  0  0  0  0  0  0  0
   45.0180   47.9950   18.0430 C   0  0  2  0  0  0  0  0  0  0  0  0
   44.4360   47.3930   16.7620 C   0  0  0  0  0  0  0  0  0  0  0  0
   45.5360   46.6490   16.0030 C   0  0  0  0  0  0  0  0  0  0  0  0
   45.2010   46.6270   14.5110 C   0  0  0  0  0  0  0  0  0  0  0  0
   45.4390   48.0150   13.9130 C   0  0  0  0  0  0  0  0  0  0  0  0
   45.3230   47.9410   12.3890 C   0  0  0  0  0  0  0  0  0  0  0  0
   46.8390   48.5020   14.2940 C   0  0  0  0  0  0  0  0  0  0  0  0
   52.0980   53.4700   19.9890 C   0  0  0  0  0  0  0  0  0  0  0  0
   51.5570   53.5850   21.4150 C   0  0  0  0  0  0  0  0  0  0  0  0
   51.1910   55.0180   21.7010 C   0  0  0  0  0  0  0  0  0  0  0  0
   51.8610   55.8710   22.4910 C   0  0  0  0  0  0  0  0  0  0  0  0
   51.2330   57.0860   22.5050 N   0  0  0  0  0  0  0  0  0  0  0  0
   51.5320   57.8630   23.0030 H   0  0  0  0  0  0  0  0  0  0  0  0
   50.1080   57.0410   21.7120 C   0  0  0  0  0  0  0  0  0  0  0  0
   49.1290   57.9730   21.3850 C   0  0  0  0  0  0  0  0  0  0  0  0
   48.0990   57.6160   20.5410 C   0  0  0  0  0  0  0  0  0  0  0  0
   48.0300   56.3340   20.0130 C   0  0  0  0  0  0  0  0  0  0  0  0
   48.9820   55.4030   20.3200 C   0  0  0  0  0  0  0  0  0  0  0  0
   50.0330   55.7440   21.1730 C   0  0  0  0  0  0  0  0  0  0  0  0
  1  2  1  0  0  0  0
  1  9  1  1  0  0  0
  1  7  1  0  0  0  0
  2  3  1  0  0  0  0
  3  4  1  0  0  0  0
  3 23  1  0  0  0  0
  4  5  2  0  0  0  0
  6  2  2  0  0  0  0
  7  8  1  0  0  0  0
  7  4  1  0  0  0  0
 10 13  1  0  0  0  0
 10  9  1  0  0  0  0
 11 16  1  0  0  0  0
 11 12  1  0  0  0  0
 13 11  1  0  0  0  0
 14 13  2  0  0  0  0
 16 17  1  6  0  0  0
 16 15  1  0  0  0  0
 18 17  1  0  0  0  0
 19 18  1  0  0  0  0
 20 22  1  0  0  0  0
 20 19  1  0  0  0  0
 21 20  1  0  0  0  0
 23 24  1  0  0  0  0
 24 25  1  0  0  0  0
 25 26  2  0  0  0  0
 26 27  1  0  0  0  0
 27 28  1  0  0  0  0
 29 27  1  0  0  0  0
 30 29  1  0  0  0  0
 31 30  2  0  0  0  0
 32 33  2  0  0  0  0
 32 31  1  0  0  0  0
 33 34  1  0  0  0  0
 34 25  1  0  0  0  0
 34 29  2  0  0  0  0
M  END
>  <MODEL>
4

>  <REMARK>
  Name = ZINC08765061
                            x       y       z     vdW  Elec       q    Type
                         _______ _______ _______ _____ _____    ______ ____

>  <TORSDO>
F 11

>  <minimizedAffinity>
-9.1574611752925588

$$$$
ZINC08765061
 OpenBabel10211213343D

 34 36  0  0  1  0  0  0  0  0999 V2000
   52.7840   50.6080   20.2740 C   0  0  1  0  0  0  0  0  0  0  0  0
   52.4250   51.6690   19.2530 C   0  0  0  0  0  0  0  0  0  0  0  0
   51.8830   52.6830   19.9550 N   0  0  0  0  0  0  0  0  0  0  0  0
   51.8490   52.4120   21.2650 C   0  0  0  0  0  0  0  0  0  0  0  0
   51.4050   53.1740   22.1020 O   0  0  0  0  0  0  0  0  0  0  0  0
   52.5920   51.6170   18.0530 O   0  0  0  0  0  0  0  0  0  0  0  0
   52.3660   51.2000   21.5560 N   0  0  0  0  0  0  0  0  0  0  0  0
   52.4450   50.7960   22.4350 H   0  0  0  0  0  0  0  0  0  0  0  0
   52.0130   49.3160   20.0000 C   0  0  0  0  0  0  0  0  0  0  0  0
   50.5300   49.5300   20.3150 C   0  0  0  0  0  0  0  0  0  0  0  0
   50.0650   49.8850   17.9120 N   0  0  0  0  0  0  0  0  0  0  0  0
   50.8420   50.4640   17.8800 H   0  0  0  0  0  0  0  0  0  0  0  0
   49.7140   49.2930   19.0700 C   0  0  0  0  0  0  0  0  0  0  0  0
   48.7410   48.5700   19.1120 O   0  0  0  0  0  0  0  0  0  0  0  0
   50.1160   49.9790   15.4690 C   0  0  0  0  0  0  0  0  0  0  0  0
   49.2710   49.6550   16.7020 C   0  0  2  0  0  0  0  0  0  0  0  0
   48.0340   50.5550   16.7250 C   0  0  0  0  0  0  0  0  0  0  0  0
   46.7950   49.7280   16.3790 C   0  0  0  0  0  0  0  0  0  0  0  0
   45.8270   49.7390   17.5640 C   0  0  0  0  0  0  0  0  0  0  0  0
   44.9480   48.4880   17.5170 C   0  0  0  0  0  0  0  0  0  0  0  0
   45.3320   47.5520   18.6660 C   0  0  0  0  0  0  0  0  0  0  0  0
   45.1550   47.7680   16.1830 C   0  0  0  0  0  0  0  0  0  0  0  0
   51.3910   53.9270   19.3600 C   0  0  0  0  0  0  0  0  0  0  0  0
   49.9770   53.7090   18.8180 C   0  0  0  0  0  0  0  0  0  0  0  0
   49.2930   55.0420   18.6450 C   0  0  0  0  0  0  0  0  0  0  0  0
   48.6990   55.4950   17.5310 C   0  0  0  0  0  0  0  0  0  0  0  0
   48.1840   56.7430   17.7510 N   0  0  0  0  0  0  0  0  0  0  0  0
   47.7070   57.2730   17.0940 H   0  0  0  0  0  0  0  0  0  0  0  0
   48.4490   57.1380   19.0430 C   0  0  0  0  0  0  0  0  0  0  0  0
   48.1650   58.2880   19.7710 C   0  0  0  0  0  0  0  0  0  0  0  0
   48.5760   58.3880   21.0820 C   0  0  0  0  0  0  0  0  0  0  0  0
   49.2730   57.3500   21.6860 C   0  0  0  0  0  0  0  0  0  0  0  0
   49.5640   56.2110   20.9890 C   0  0  0  0  0  0  0  0  0  0  0  0
   49.1560   56.0890   19.6600 C   0  0  0  0  0  0  0  0  0  0  0  0
  1  9  1  1  0  0  0
  1  7  1  0  0  0  0
  2  3  1  0  0  0  0
  2  1  1  0  0  0  0
  3  4  1  0  0  0  0
  4  7  1  0  0  0  0
  4  5  2  0  0  0  0
  6  2  2  0  0  0  0
  7  8  1  0  0  0  0
  9 10  1  0  0  0  0
 11 13  1  0  0  0  0
 12 11  1  0  0  0  0
 13 14  2  0  0  0  0
 13 10  1  0  0  0  0
 16 15  1  1  0  0  0
 16 17  1  0  0  0  0
 16 11  1  0  0  0  0
 18 17  1  0  0  0  0
 18 19  1  0  0  0  0
 20 19  1  0  0  0  0
 20 21  1  0  0  0  0
 22 20  1  0  0  0  0
 23  3  1  0  0  0  0
 24 23  1  0  0  0  0
 25 24  1  0  0  0  0
 25 34  1  0  0  0  0
 26 27  1  0  0  0  0
 26 25  2  0  0  0  0
 27 29  1  0  0  0  0
 28 27  1  0  0  0  0
 29 34  2  0  0  0  0
 29 30  1  0  0  0  0
 30 31  2  0  0  0  0
 31 32  1  0  0  0  0
 33 32  2  0  0  0  0
 34 33  1  0  0  0  0
M  END
>  <MODEL>
5

>  <REMARK>
  Name = ZINC08765061
                            x       y       z     vdW  Elec       q    Type
                         _______ _______ _______ _____ _____    ______ ____

>  <TORSDO>
F 11

>  <minimizedAffinity>
-9.1237924888333968

$$$$
ZINC08765061
 OpenBabel10211213343D

 34 36  0  0  1  0  0  0  0  0999 V2000
   51.7890   51.4800   20.9510 C   0  0  1  0  0  0  0  0  0  0  0  0
   50.9970   50.7210   19.9050 C   0  0  0  0  0  0  0  0  0  0  0  0
   51.4720   51.1370   18.7150 N   0  0  0  0  0  0  0  0  0  0  0  0
   52.4440   52.0450   18.8620 C   0  0  0  0  0  0  0  0  0  0  0  0
   53.0260   52.5680   17.9320 O   0  0  0  0  0  0  0  0  0  0  0  0
   50.1190   49.9080   20.0990 O   0  0  0  0  0  0  0  0  0  0  0  0
   52.7080   52.3150   20.1570 N   0  0  0  0  0  0  0  0  0  0  0  0
   53.3690   52.9360   20.5000 H   0  0  0  0  0  0  0  0  0  0  0  0
   50.8630   52.3540   21.7980 C   0  0  0  0  0  0  0  0  0  0  0  0
   51.6310   53.5830   22.2920 C   0  0  0  0  0  0  0  0  0  0  0  0
   51.3830   56.0290   22.0260 N   0  0  0  0  0  0  0  0  0  0  0  0
   51.8080   56.1340   22.8910 H   0  0  0  0  0  0  0  0  0  0  0  0
   51.1870   54.7970   21.5170 C   0  0  0  0  0  0  0  0  0  0  0  0
   50.6550   54.6650   20.4350 O   0  0  0  0  0  0  0  0  0  0  0  0
   52.0250   58.2960   21.3700 C   0  0  0  0  0  0  0  0  0  0  0  0
   50.9520   57.2090   21.2730 C   0  0  2  0  0  0  0  0  0  0  0  0
   49.6390   57.7350   21.8570 C   0  0  0  0  0  0  0  0  0  0  0  0
   48.4810   57.3530   20.9330 C   0  0  0  0  0  0  0  0  0  0  0  0
   47.6740   58.6040   20.5820 C   0  0  0  0  0  0  0  0  0  0  0  0
   47.8950   58.9570   19.1100 C   0  0  0  0  0  0  0  0  0  0  0  0
   46.7920   59.9110   18.6430 C   0  0  0  0  0  0  0  0  0  0  0  0
   47.8550   57.6810   18.2670 C   0  0  0  0  0  0  0  0  0  0  0  0
   50.9850   50.6560   17.4200 C   0  0  0  0  0  0  0  0  0  0  0  0
   49.6480   51.3250   17.0970 C   0  0  0  0  0  0  0  0  0  0  0  0
   48.8390   50.4260   16.1980 C   0  0  0  0  0  0  0  0  0  0  0  0
   49.1810   50.0090   14.9690 C   0  0  0  0  0  0  0  0  0  0  0  0
   48.2010   49.2010   14.4610 N   0  0  0  0  0  0  0  0  0  0  0  0
   48.2250   48.7780   13.5880 H   0  0  0  0  0  0  0  0  0  0  0  0
   47.1740   49.0820   15.3690 C   0  0  0  0  0  0  0  0  0  0  0  0
   45.9610   48.4020   15.3600 C   0  0  0  0  0  0  0  0  0  0  0  0
   45.1230   48.4820   16.4510 C   0  0  0  0  0  0  0  0  0  0  0  0
   45.4780   49.2350   17.5620 C   0  0  0  0  0  0  0  0  0  0  0  0
   46.6650   49.9110   17.5920 C   0  0  0  0  0  0  0  0  0  0  0  0
   47.5280   49.8450   16.4980 C   0  0  0  0  0  0  0  0  0  0  0  0
  1  9  1  6  0  0  0
  2  6  2  0  0  0  0
  2  1  1  0  0  0  0
  3  4  1  0  0  0  0
  3  2  1  0  0  0  0
  4  7  1  0  0  0  0
  5  4  2  0  0  0  0
  7  8  1  0  0  0  0
  7  1  1  0  0  0  0
  9 10  1  0  0  0  0
 11 12  1  0  0  0  0
 13 11  1  0  0  0  0
 13 10  1  0  0  0  0
 14 13  2  0  0  0  0
 16 15  1  1  0  0  0
 16 17  1  0  0  0  0
 16 11  1  0  0  0  0
 18 17  1  0  0  0  0
 19 18  1  0  0  0  0
 20 19  1  0  0  0  0
 21 20  1  0  0  0  0
 22 20  1  0  0  0  0
 23  3  1  0  0  0  0
 24 23  1  0  0  0  0
 25 34  1  0  0  0  0
 25 24  1  0  0  0  0
 26 25  2  0  0  0  0
 27 26  1  0  0  0  0
 27 29  1  0  0  0  0
 28 27  1  0  0  0  0
 29 34  1  0  0  0  0
 30 29  2  0  0  0  0
 30 31  1  0  0  0  0
 31 32  2  0  0  0  0
 32 33  1  0  0  0  0
 34 33  2  0  0  0  0
M  END
>  <MODEL>
6

>  <REMARK>
  Name = ZINC08765061
                            x       y       z     vdW  Elec       q    Type
                         _______ _______ _______ _____ _____    ______ ____

>  <TORSDO>
F 11

>  <minimizedAffinity>
-9.1168711859887637

$$$$
ZINC08765061
 OpenBabel10211213343D

 34 36  0  0  1  0  0  0  0  0999 V2000
   51.4720   52.6500   21.2700 C   0  0  1  0  0  0  0  0  0  0  0  0
   50.6830   52.1870   20.0620 C   0  0  0  0  0  0  0  0  0  0  0  0
   51.3190   51.0880   19.6100 N   0  0  0  0  0  0  0  0  0  0  0  0
   52.3900   50.7960   20.3580 C   0  0  0  0  0  0  0  0  0  0  0  0
   53.1220   49.8500   20.1480 O   0  0  0  0  0  0  0  0  0  0  0  0
   49.6860   52.6980   19.5980 O   0  0  0  0  0  0  0  0  0  0  0  0
   52.5650   51.6670   21.3730 N   0  0  0  0  0  0  0  0  0  0  0  0
   53.2700   51.6520   22.0390 H   0  0  0  0  0  0  0  0  0  0  0  0
   52.0310   54.0550   21.0410 C   0  0  0  0  0  0  0  0  0  0  0  0
   51.6660   54.9500   22.2280 C   0  0  0  0  0  0  0  0  0  0  0  0
   49.8310   56.4340   21.4880 N   0  0  0  0  0  0  0  0  0  0  0  0
   49.2170   55.7010   21.6470 H   0  0  0  0  0  0  0  0  0  0  0  0
   51.1480   56.2710   21.7200 C   0  0  0  0  0  0  0  0  0  0  0  0
   51.9180   57.1870   21.5190 O   0  0  0  0  0  0  0  0  0  0  0  0
   48.8920   58.5840   22.1780 C   0  0  0  0  0  0  0  0  0  0  0  0
   49.3280   57.7180   20.9940 C   0  0  2  0  0  0  0  0  0  0  0  0
   48.1310   57.4760   20.0710 C   0  0  0  0  0  0  0  0  0  0  0  0
   47.1630   58.6560   20.1720 C   0  0  0  0  0  0  0  0  0  0  0  0
   47.3180   59.5500   18.9410 C   0  0  0  0  0  0  0  0  0  0  0  0
   46.2130   60.6080   18.9350 C   0  0  0  0  0  0  0  0  0  0  0  0
   45.7480   60.8520   17.4980 C   0  0  0  0  0  0  0  0  0  0  0  0
   46.7520   61.9130   19.5250 C   0  0  0  0  0  0  0  0  0  0  0  0
   50.8910   50.3090   18.4460 C   0  0  0  0  0  0  0  0  0  0  0  0
   49.7690   49.3530   18.8560 C   0  0  0  0  0  0  0  0  0  0  0  0
   48.5980   49.5220   17.9220 C   0  0  0  0  0  0  0  0  0  0  0  0
   48.5710   50.2600   16.8020 C   0  0  0  0  0  0  0  0  0  0  0  0
   47.3390   50.1680   16.2120 N   0  0  0  0  0  0  0  0  0  0  0  0
   47.0810   50.6120   15.3900 H   0  0  0  0  0  0  0  0  0  0  0  0
   46.5200   49.3560   16.9640 C   0  0  0  0  0  0  0  0  0  0  0  0
   45.2000   48.9390   16.8280 C   0  0  0  0  0  0  0  0  0  0  0  0
   44.6460   48.1030   17.7740 C   0  0  0  0  0  0  0  0  0  0  0  0
   45.3930   47.6710   18.8610 C   0  0  0  0  0  0  0  0  0  0  0  0
   46.6920   48.0690   19.0130 C   0  0  0  0  0  0  0  0  0  0  0  0
   47.2720   48.9160   18.0680 C   0  0  0  0  0  0  0  0  0  0  0  0
  1  9  1  6  0  0  0
  1  7  1  0  0  0  0
  2  1  1  0  0  0  0
  3  2  1  0  0  0  0
  3  4  1  0  0  0  0
  4  7  1  0  0  0  0
  5  4  2  0  0  0  0
  6  2  2  0  0  0  0
  7  8  1  0  0  0  0
  9 10  1  0  0  0  0
 11 12  1  0  0  0  0
 11 13  1  0  0  0  0
 13 10  1  0  0  0  0
 14 13  2  0  0  0  0
 16 17  1  1  0  0  0
 16 11  1  0  0  0  0
 16 15  1  0  0  0  0
 17 18  1  0  0  0  0
 19 18  1  0  0  0  0
 20 19  1  0  0  0  0
 20 22  1  0  0  0  0
 21 20  1  0  0  0  0
 23 24  1  0  0  0  0
 23  3  1  0  0  0  0
 25 34  1  0  0  0  0
 25 24  1  0  0  0  0
 26 25  2  0  0  0  0
 27 26  1  0  0  0  0
 27 29  1  0  0  0  0
 28 27  1  0  0  0  0
 29 34  1  0  0  0  0
 30 29  2  0  0  0  0
 30 31  1  0  0  0  0
 31 32  2  0  0  0  0
 32 33  1  0  0  0  0
 34 33  2  0  0  0  0
M  END
>  <MODEL>
7

>  <REMARK>
  Name = ZINC08765061
                            x       y       z     vdW  Elec       q    Type
                         _______ _______ _______ _____ _____    ______ ____

>  <TORSDO>
F 11

>  <minimizedAffinity>
-9.0622754123476223

$$$$
ZINC08765061
 OpenBabel10211213343D

 34 36  0  0  1  0  0  0  0  0999 V2000
   50.5180   50.7250   18.0300 C   0  0  1  0  0  0  0  0  0  0  0  0
   50.6890   52.1820   18.4090 C   0  0  0  0  0  0  0  0  0  0  0  0
   51.6800   52.2080   19.3220 N   0  0  0  0  0  0  0  0  0  0  0  0
   52.1530   50.9810   19.5700 C   0  0  0  0  0  0  0  0  0  0  0  0
   53.0490   50.7490   20.3570 O   0  0  0  0  0  0  0  0  0  0  0  0
   50.0640   53.1290   17.9800 O   0  0  0  0  0  0  0  0  0  0  0  0
   51.5270   50.0290   18.8480 N   0  0  0  0  0  0  0  0  0  0  0  0
   51.7040   49.0760   18.8630 H   0  0  0  0  0  0  0  0  0  0  0  0
   49.1110   50.2390   18.3820 C   0  0  0  0  0  0  0  0  0  0  0  0
   49.1250   48.7180   18.5550 C   0  0  0  0  0  0  0  0  0  0  0  0
   47.3330   48.6900   16.8500 N   0  0  0  0  0  0  0  0  0  0  0  0
   47.0340   49.5450   17.1970 H   0  0  0  0  0  0  0  0  0  0  0  0
   48.3980   48.0750   17.4010 C   0  0  0  0  0  0  0  0  0  0  0  0
   48.7710   47.0050   16.9700 O   0  0  0  0  0  0  0  0  0  0  0  0
   47.1470   48.6430   14.4120 C   0  0  0  0  0  0  0  0  0  0  0  0
   46.6260   48.0660   15.7300 C   0  0  2  0  0  0  0  0  0  0  0  0
   45.1260   48.3470   15.8520 C   0  0  0  0  0  0  0  0  0  0  0  0
   44.3400   47.2250   15.1720 C   0  0  0  0  0  0  0  0  0  0  0  0
   44.8200   45.8730   15.7010 C   0  0  0  0  0  0  0  0  0  0  0  0
   44.4000   44.7660   14.7310 C   0  0  0  0  0  0  0  0  0  0  0  0
   43.0120   44.2490   15.1170 C   0  0  0  0  0  0  0  0  0  0  0  0
   45.4090   43.6180   14.7990 C   0  0  0  0  0  0  0  0  0  0  0  0
   52.1770   53.4270   19.9630 C   0  0  0  0  0  0  0  0  0  0  0  0
   51.6240   53.5160   21.3870 C   0  0  0  0  0  0  0  0  0  0  0  0
   51.2440   54.9430   21.6900 C   0  0  0  0  0  0  0  0  0  0  0  0
   51.8990   55.7880   22.5010 C   0  0  0  0  0  0  0  0  0  0  0  0
   51.2610   56.9990   22.5260 N   0  0  0  0  0  0  0  0  0  0  0  0
   51.5500   57.7700   23.0390 H   0  0  0  0  0  0  0  0  0  0  0  0
   50.1460   56.9580   21.7190 C   0  0  0  0  0  0  0  0  0  0  0  0
   49.1630   57.8870   21.3960 C   0  0  0  0  0  0  0  0  0  0  0  0
   48.1460   57.5350   20.5360 C   0  0  0  0  0  0  0  0  0  0  0  0
   48.0920   56.2620   19.9870 C   0  0  0  0  0  0  0  0  0  0  0  0
   49.0470   55.3330   20.2910 C   0  0  0  0  0  0  0  0  0  0  0  0
   50.0860   55.6680   21.1600 C   0  0  0  0  0  0  0  0  0  0  0  0
  1  9  1  1  0  0  0
  1  2  1  0  0  0  0
  1  7  1  0  0  0  0
  2  3  1  0  0  0  0
  3  4  1  0  0  0  0
  3 23  1  0  0  0  0
  4  5  2  0  0  0  0
  6  2  2  0  0  0  0
  7  8  1  0  0  0  0
  7  4  1  0  0  0  0
  9 10  1  0  0  0  0
 11 12  1  0  0  0  0
 11 13  1  0  0  0  0
 13 10  1  0  0  0  0
 14 13  2  0  0  0  0
 16 15  1  6  0  0  0
 16 17  1  0  0  0  0
 16 11  1  0  0  0  0
 18 19  1  0  0  0  0
 18 17  1  0  0  0  0
 20 22  1  0  0  0  0
 20 21  1  0  0  0  0
 20 19  1  0  0  0  0
 23 24  1  0  0  0  0
 24 25  1  0  0  0  0
 25 26  2  0  0  0  0
 26 27  1  0  0  0  0
 27 28  1  0  0  0  0
 29 27  1  0  0  0  0
 30 29  1  0  0  0  0
 31 30  2  0  0  0  0
 32 33  2  0  0  0  0
 32 31  1  0  0  0  0
 33 34  1  0  0  0  0
 34 25  1  0  0  0  0
 34 29  2  0  0  0  0
M  END
>  <MODEL>
8

>  <REMARK>
  Name = ZINC08765061
                            x       y       z     vdW  Elec       q    Type
                         _______ _______ _______ _____ _____    ______ ____

>  <TORSDO>
F 11

>  <minimizedAffinity>
-8.8831893278421781

$$$$
ZINC08765061
 OpenBabel10211213343D

 34 36  0  0  1  0  0  0  0  0999 V2000
   51.9750   52.0520   20.5480 C   0  0  1  0  0  0  0  0  0  0  0  0
   51.3720   53.1350   19.6750 C   0  0  0  0  0  0  0  0  0  0  0  0
   51.2680   54.2230   20.4630 N   0  0  0  0  0  0  0  0  0  0  0  0
   51.7160   53.9800   21.7000 C   0  0  0  0  0  0  0  0  0  0  0  0
   51.7240   54.8080   22.5900 O   0  0  0  0  0  0  0  0  0  0  0  0
   51.0520   53.0420   18.5090 O   0  0  0  0  0  0  0  0  0  0  0  0
   52.1610   52.7150   21.8500 N   0  0  0  0  0  0  0  0  0  0  0  0
   52.5280   52.3190   22.6550 H   0  0  0  0  0  0  0  0  0  0  0  0
   51.0140   50.8700   20.6780 C   0  0  0  0  0  0  0  0  0  0  0  0
   51.3470   49.8220   19.6120 C   0  0  0  0  0  0  0  0  0  0  0  0
   49.7950   49.4580   17.7200 N   0  0  0  0  0  0  0  0  0  0  0  0
   50.4200   49.9400   17.1570 H   0  0  0  0  0  0  0  0  0  0  0  0
   50.0690   49.2760   19.0280 C   0  0  0  0  0  0  0  0  0  0  0  0
   49.2870   48.6750   19.7330 O   0  0  0  0  0  0  0  0  0  0  0  0
   48.8510   48.2660   15.8050 C   0  0  0  0  0  0  0  0  0  0  0  0
   48.5540   48.9280   17.1520 C   0  0  2  0  0  0  0  0  0  0  0  0
   47.5570   50.0720   16.9490 C   0  0  0  0  0  0  0  0  0  0  0  0
   46.1720   49.6320   17.4260 C   0  0  0  0  0  0  0  0  0  0  0  0
   46.3220   48.5550   18.5030 C   0  0  0  0  0  0  0  0  0  0  0  0
   45.3800   47.3890   18.1930 C   0  0  0  0  0  0  0  0  0  0  0  0
   44.4560   47.7740   17.0360 C   0  0  0  0  0  0  0  0  0  0  0  0
   44.5400   47.0700   19.4310 C   0  0  0  0  0  0  0  0  0  0  0  0
   50.7320   55.5120   20.0200 C   0  0  0  0  0  0  0  0  0  0  0  0
   49.2040   55.4770   20.0820 C   0  0  0  0  0  0  0  0  0  0  0  0
   48.6350   56.2570   18.9250 C   0  0  0  0  0  0  0  0  0  0  0  0
   48.6100   55.8740   17.6390 C   0  0  0  0  0  0  0  0  0  0  0  0
   48.0110   56.8390   16.8760 N   0  0  0  0  0  0  0  0  0  0  0  0
   47.8750   56.7860   15.9170 H   0  0  0  0  0  0  0  0  0  0  0  0
   47.6340   57.8980   17.6710 C   0  0  0  0  0  0  0  0  0  0  0  0
   47.0070   59.1120   17.4140 C   0  0  0  0  0  0  0  0  0  0  0  0
   46.7610   59.9870   18.4510 C   0  0  0  0  0  0  0  0  0  0  0  0
   47.1320   59.6690   19.7490 C   0  0  0  0  0  0  0  0  0  0  0  0
   47.7500   58.4810   20.0240 C   0  0  0  0  0  0  0  0  0  0  0  0
   48.0090   57.5800   18.9900 C   0  0  0  0  0  0  0  0  0  0  0  0
  1  9  1  1  0  0  0
  1  7  1  0  0  0  0
  2  3  1  0  0  0  0
  2  1  1  0  0  0  0
  3  4  1  0  0  0  0
  4  7  1  0  0  0  0
  4  5  2  0  0  0  0
  6  2  2  0  0  0  0
  7  8  1  0  0  0  0
 10  9  1  0  0  0  0
 11 13  1  0  0  0  0
 12 11  1  0  0  0  0
 13 10  1  0  0  0  0
 13 14  2  0  0  0  0
 16 15  1  6  0  0  0
 16 11  1  0  0  0  0
 17 16  1  0  0  0  0
 17 18  1  0  0  0  0
 18 19  1  0  0  0  0
 20 19  1  0  0  0  0
 20 22  1  0  0  0  0
 21 20  1  0  0  0  0
 23 24  1  0  0  0  0
 23  3  1  0  0  0  0
 25 34  1  0  0  0  0
 25 24  1  0  0  0  0
 26 25  2  0  0  0  0
 27 26  1  0  0  0  0
 27 29  1  0  0  0  0
 28 27  1  0  0  0  0
 29 34  1  0  0  0  0
 30 29  2  0  0  0  0
 30 31  1  0  0  0  0
 31 32  2  0  0  0  0
 32 33  1  0  0  0  0
 34 33  2  0  0  0  0
M  END
>  <MODEL>
9

>  <REMARK>
  Name = ZINC08765061
                            x       y       z     vdW  Elec       q    Type
                         _______ _______ _______ _____ _____    ______ ____

>  <TORSDO>
F 11

>  <minimizedAffinity>
-8.8595355209236715

$$$$
ZINC20158276
 OpenBabel10211213373D

 32 33  0  0  1  0  0  0  0  0999 V2000
   51.1340   50.6940   16.7370 N   0  0  0  0  0  0  0  0  0  0  0  0
   52.0270   50.2020   16.3240 H   0  0  0  0  0  0  0  0  0  0  0  0
   49.9290   50.6720   16.0230 N   0  0  0  0  0  0  0  0  0  0  0  0
   49.1070   51.3450   16.3100 H   0  0  0  0  0  0  0  0  0  0  0  0
   49.7760   49.8260   14.9850 C   0  0  0  0  0  0  0  0  0  0  0  0
   50.6820   49.0830   14.6690 O   0  0  0  0  0  0  0  0  0  0  0  0
   48.4790   49.8020   14.2180 C   0  0  0  0  0  0  0  0  0  0  0  0
   47.3610   49.3730   15.1330 C   0  0  0  0  0  0  0  0  0  0  0  0
   47.1850   50.0060   16.3500 C   0  0  0  0  0  0  0  0  0  0  0  0
   46.1580   49.6200   17.1900 C   0  0  0  0  0  0  0  0  0  0  0  0
   45.3080   48.5910   16.8190 C   0  0  0  0  0  0  0  0  0  0  0  0
   45.4890   47.9500   15.5970 C   0  0  0  0  0  0  0  0  0  0  0  0
   46.5180   48.3450   14.7570 C   0  0  0  0  0  0  0  0  0  0  0  0
   44.2990   48.2070   17.6460 O   0  0  0  0  0  0  0  0  0  0  0  0
   44.6580   47.4170   18.7820 C   0  0  0  0  0  0  0  0  0  0  0  0
   44.6570   46.9400   15.2280 O   0  0  0  0  0  0  0  0  0  0  0  0
   45.1510   45.6070   15.3760 C   0  0  0  0  0  0  0  0  0  0  0  0
   49.9950   51.2980   18.7810 C   0  0  0  0  0  0  0  0  0  0  0  0
   51.1960   51.2860   17.8700 C   0  0  2  0  0  0  0  0  0  0  0  0
   52.4700   51.9720   18.2940 C   0  0  0  0  0  0  0  0  0  0  0  0
   52.2800   52.5860   19.6570 C   0  0  0  0  0  0  0  0  0  0  0  0
   51.8910   53.8710   19.7680 N   0  0  0  0  0  0  0  0  0  0  0  0
   51.7120   54.4720   18.8640 H   0  0  0  0  0  0  0  0  0  0  0  0
   52.4770   51.9230   20.6530 O   0  0  0  0  0  0  0  0  0  0  0  0
   51.7060   54.4680   21.0920 C   0  0  0  0  0  0  0  0  0  0  0  0
   50.5740   55.4630   21.0420 C   0  0  0  0  0  0  0  0  0  0  0  0
   50.6290   56.6090   21.8140 C   0  0  0  0  0  0  0  0  0  0  0  0
   49.5940   57.5250   21.7640 C   0  0  0  0  0  0  0  0  0  0  0  0
   48.5000   57.2880   20.9500 C   0  0  0  0  0  0  0  0  0  0  0  0
   47.4860   58.1810   20.9050 F   0  0  0  0  0  0  0  0  0  0  0  0
   48.4450   56.1380   20.1830 C   0  0  0  0  0  0  0  0  0  0  0  0
   49.4820   55.2260   20.2290 C   0  0  0  0  0  0  0  0  0  0  0  0
  2  1  1  0  0  0  0
  3  4  1  0  0  0  0
  3  1  1  0  0  0  0
  5  3  1  0  0  0  0
  6  5  2  0  0  0  0
  7  5  1  0  0  0  0
  7  8  1  0  0  0  0
  8  9  1  0  0  0  0
  9 10  2  0  0  0  0
 11 10  1  0  0  0  0
 11 14  1  0  0  0  0
 12 11  2  0  0  0  0
 13  8  2  0  0  0  0
 13 12  1  0  0  0  0
 14 15  1  0  0  0  0
 16 17  1  0  0  0  0
 16 12  1  0  0  0  0
 19  1  1  6  0  0  0
 19 20  1  0  0  0  0
 19 18  1  0  0  0  0
 20 21  1  0  0  0  0
 21 22  1  0  0  0  0
 21 24  2  0  0  0  0
 22 25  1  0  0  0  0
 23 22  1  0  0  0  0
 26 25  1  0  0  0  0
 26 27  2  0  0  0  0
 28 27  1  0  0  0  0
 29 28  2  0  0  0  0
 30 29  1  0  0  0  0
 31 32  2  0  0  0  0
 31 29  1  0  0  0  0
 32 26  1  0  0  0  0
M  END
>  <MODEL>
1

>  <REMARK>
  Name = ZINC20158276
                            x       y       z     vdW  Elec       q    Type
                         _______ _______ _______ _____ _____    ______ ____

>  <TORSDO>
F 9

>  <minimizedAffinity>
-9.4732228493376773

$$$$
ZINC20158276
 OpenBabel10211213373D

 32 33  0  0  1  0  0  0  0  0999 V2000
   52.1890   53.1750   21.7260 N   0  0  0  0  0  0  0  0  0  0  0  0
   53.1760   53.0310   22.1890 H   0  0  0  0  0  0  0  0  0  0  0  0
   51.3450   54.1970   22.1790 N   0  0  0  0  0  0  0  0  0  0  0  0
   50.4250   53.9460   22.7280 H   0  0  0  0  0  0  0  0  0  0  0  0
   51.6600   55.4850   21.9430 C   0  0  0  0  0  0  0  0  0  0  0  0
   52.6750   55.7610   21.3380 O   0  0  0  0  0  0  0  0  0  0  0  0
   50.7510   56.5840   22.4300 C   0  0  0  0  0  0  0  0  0  0  0  0
   49.8000   56.9750   21.3290 C   0  0  0  0  0  0  0  0  0  0  0  0
   48.9180   58.0230   21.5190 C   0  0  0  0  0  0  0  0  0  0  0  0
   48.0470   58.3880   20.5090 C   0  0  0  0  0  0  0  0  0  0  0  0
   48.0500   57.6980   19.3080 C   0  0  0  0  0  0  0  0  0  0  0  0
   48.9340   56.6410   19.1180 C   0  0  0  0  0  0  0  0  0  0  0  0
   49.8080   56.2830   20.1330 C   0  0  0  0  0  0  0  0  0  0  0  0
   47.1910   58.0540   18.3150 O   0  0  0  0  0  0  0  0  0  0  0  0
   47.1990   59.4240   17.9100 C   0  0  0  0  0  0  0  0  0  0  0  0
   48.9410   55.9610   17.9410 O   0  0  0  0  0  0  0  0  0  0  0  0
   48.7780   54.5430   18.0090 C   0  0  0  0  0  0  0  0  0  0  0  0
   52.1730   52.7440   19.3480 C   0  0  0  0  0  0  0  0  0  0  0  0
   51.8120   52.4080   20.7720 C   0  0  2  0  0  0  0  0  0  0  0  0
   51.0070   51.1700   21.0740 C   0  0  0  0  0  0  0  0  0  0  0  0
   50.6940   50.4500   19.7880 C   0  0  0  0  0  0  0  0  0  0  0  0
   49.6670   50.8620   19.0170 N   0  0  0  0  0  0  0  0  0  0  0  0
   49.0590   51.7240   19.3280 H   0  0  0  0  0  0  0  0  0  0  0  0
   51.3650   49.5000   19.4450 O   0  0  0  0  0  0  0  0  0  0  0  0
   49.3630   50.1630   17.7680 C   0  0  0  0  0  0  0  0  0  0  0  0
   47.9630   49.6070   17.8300 C   0  0  0  0  0  0  0  0  0  0  0  0
   47.6620   48.5920   18.7180 C   0  0  0  0  0  0  0  0  0  0  0  0
   46.3770   48.0860   18.7810 C   0  0  0  0  0  0  0  0  0  0  0  0
   45.3950   48.5900   17.9450 C   0  0  0  0  0  0  0  0  0  0  0  0
   44.1390   48.0930   18.0020 F   0  0  0  0  0  0  0  0  0  0  0  0
   45.6990   49.6030   17.0520 C   0  0  0  0  0  0  0  0  0  0  0  0
   46.9830   50.1110   16.9950 C   0  0  0  0  0  0  0  0  0  0  0  0
  1  3  1  0  0  0  0
  1  2  1  0  0  0  0
  3  4  1  0  0  0  0
  5  3  1  0  0  0  0
  5  7  1  0  0  0  0
  6  5  2  0  0  0  0
  8  9  1  0  0  0  0
  8  7  1  0  0  0  0
 10  9  2  0  0  0  0
 11 10  1  0  0  0  0
 12 11  2  0  0  0  0
 12 13  1  0  0  0  0
 13  8  2  0  0  0  0
 14 11  1  0  0  0  0
 15 14  1  0  0  0  0
 16 17  1  0  0  0  0
 16 12  1  0  0  0  0
 19 18  1  6  0  0  0
 19 20  1  0  0  0  0
 19  1  1  0  0  0  0
 21 20  1  0  0  0  0
 22 23  1  0  0  0  0
 22 21  1  0  0  0  0
 24 21  2  0  0  0  0
 25 26  1  0  0  0  0
 25 22  1  0  0  0  0
 26 27  2  0  0  0  0
 27 28  1  0  0  0  0
 29 30  1  0  0  0  0
 29 28  2  0  0  0  0
 31 29  1  0  0  0  0
 32 31  2  0  0  0  0
 32 26  1  0  0  0  0
M  END
>  <MODEL>
2

>  <REMARK>
  Name = ZINC20158276
                            x       y       z     vdW  Elec       q    Type
                         _______ _______ _______ _____ _____    ______ ____

>  <TORSDO>
F 9

>  <minimizedAffinity>
-9.2432863402066126

$$$$
ZINC20158276
 OpenBabel10211213373D

 32 33  0  0  1  0  0  0  0  0999 V2000
   52.0350   50.9950   20.3570 N   0  0  0  0  0  0  0  0  0  0  0  0
   52.5640   50.2130   20.9220 H   0  0  0  0  0  0  0  0  0  0  0  0
   52.2600   52.3460   20.6530 N   0  0  0  0  0  0  0  0  0  0  0  0
   53.0170   52.9120   20.0910 H   0  0  0  0  0  0  0  0  0  0  0  0
   51.5490   52.9490   21.6260 C   0  0  0  0  0  0  0  0  0  0  0  0
   50.7150   52.3240   22.2460 O   0  0  0  0  0  0  0  0  0  0  0  0
   51.7920   54.4020   21.9440 C   0  0  0  0  0  0  0  0  0  0  0  0
   50.6650   55.2340   21.3880 C   0  0  0  0  0  0  0  0  0  0  0  0
   50.4500   56.5130   21.8660 C   0  0  0  0  0  0  0  0  0  0  0  0
   49.4210   57.2810   21.3550 C   0  0  0  0  0  0  0  0  0  0  0  0
   48.5960   56.7670   20.3680 C   0  0  0  0  0  0  0  0  0  0  0  0
   48.8080   55.4770   19.8900 C   0  0  0  0  0  0  0  0  0  0  0  0
   49.8450   54.7140   20.4030 C   0  0  0  0  0  0  0  0  0  0  0  0
   47.5800   57.5200   19.8670 O   0  0  0  0  0  0  0  0  0  0  0  0
   47.9330   58.5500   18.9420 C   0  0  0  0  0  0  0  0  0  0  0  0
   48.0020   54.9680   18.9220 O   0  0  0  0  0  0  0  0  0  0  0  0
   48.6090   54.6690   17.6630 C   0  0  0  0  0  0  0  0  0  0  0  0
   50.5990   49.2930   19.4180 C   0  0  0  0  0  0  0  0  0  0  0  0
   51.2140   50.6700   19.4310 C   0  0  2  0  0  0  0  0  0  0  0  0
   50.8620   51.6620   18.3520 C   0  0  0  0  0  0  0  0  0  0  0  0
   49.8840   51.0350   17.3930 C   0  0  0  0  0  0  0  0  0  0  0  0
   48.5610   51.1040   17.6390 N   0  0  0  0  0  0  0  0  0  0  0  0
   48.1950   51.6180   18.5390 H   0  0  0  0  0  0  0  0  0  0  0  0
   50.2870   50.4690   16.3990 O   0  0  0  0  0  0  0  0  0  0  0  0
   47.6100   50.4950   16.7060 C   0  0  0  0  0  0  0  0  0  0  0  0
   46.7630   49.4860   17.4390 C   0  0  0  0  0  0  0  0  0  0  0  0
   47.2670   48.8420   18.5540 C   0  0  0  0  0  0  0  0  0  0  0  0
   46.4890   47.9210   19.2300 C   0  0  0  0  0  0  0  0  0  0  0  0
   45.2100   47.6350   18.7840 C   0  0  0  0  0  0  0  0  0  0  0  0
   44.4510   46.7310   19.4410 F   0  0  0  0  0  0  0  0  0  0  0  0
   44.7100   48.2770   17.6640 C   0  0  0  0  0  0  0  0  0  0  0  0
   45.4860   49.2020   16.9920 C   0  0  0  0  0  0  0  0  0  0  0  0
  1  3  1  0  0  0  0
  1  2  1  0  0  0  0
  3  5  1  0  0  0  0
  4  3  1  0  0  0  0
  5  7  1  0  0  0  0
  5  6  2  0  0  0  0
  8  9  1  0  0  0  0
  8  7  1  0  0  0  0
 10  9  2  0  0  0  0
 11 10  1  0  0  0  0
 12 11  2  0  0  0  0
 12 13  1  0  0  0  0
 13  8  2  0  0  0  0
 14 11  1  0  0  0  0
 15 14  1  0  0  0  0
 16 12  1  0  0  0  0
 17 16  1  0  0  0  0
 18 19  1  0  0  0  0
 19 20  1  6  0  0  0
 19  1  1  0  0  0  0
 21 22  1  0  0  0  0
 21 20  1  0  0  0  0
 22 23  1  0  0  0  0
 24 21  2  0  0  0  0
 25 26  1  0  0  0  0
 25 22  1  0  0  0  0
 26 27  1  0  0  0  0
 27 28  2  0  0  0  0
 29 28  1  0  0  0  0
 29 30  1  0  0  0  0
 31 29  2  0  0  0  0
 32 26  2  0  0  0  0
 32 31  1  0  0  0  0
M  END
>  <MODEL>
3

>  <REMARK>
  Name = ZINC20158276
                            x       y       z     vdW  Elec       q    Type
                         _______ _______ _______ _____ _____    ______ ____

>  <TORSDO>
F 9

>  <minimizedAffinity>
-9.2174189506455111

$$$$
ZINC20158276
 OpenBabel10211213373D

 32 33  0  0  1  0  0  0  0  0999 V2000
   51.2410   50.5720   16.5990 N   0  0  0  0  0  0  0  0  0  0  0  0
   52.0790   50.1360   16.0350 H   0  0  0  0  0  0  0  0  0  0  0  0
   49.9780   50.6820   16.0040 N   0  0  0  0  0  0  0  0  0  0  0  0
   49.3280   51.5360   16.2460 H   0  0  0  0  0  0  0  0  0  0  0  0
   49.5580   49.7400   15.1360 C   0  0  0  0  0  0  0  0  0  0  0  0
   50.2740   48.7970   14.8700 O   0  0  0  0  0  0  0  0  0  0  0  0
   48.1990   49.8580   14.4970 C   0  0  0  0  0  0  0  0  0  0  0  0
   47.1510   49.3300   15.4440 C   0  0  0  0  0  0  0  0  0  0  0  0
   46.9360   49.9610   16.6550 C   0  0  0  0  0  0  0  0  0  0  0  0
   45.9720   49.4840   17.5240 C   0  0  0  0  0  0  0  0  0  0  0  0
   45.2260   48.3670   17.1860 C   0  0  0  0  0  0  0  0  0  0  0  0
   45.4450   47.7290   15.9690 C   0  0  0  0  0  0  0  0  0  0  0  0
   46.4100   48.2150   15.1000 C   0  0  0  0  0  0  0  0  0  0  0  0
   44.2800   47.8940   18.0420 O   0  0  0  0  0  0  0  0  0  0  0  0
   44.7450   47.2080   19.2060 C   0  0  0  0  0  0  0  0  0  0  0  0
   44.7150   46.6330   15.6330 O   0  0  0  0  0  0  0  0  0  0  0  0
   44.7930   46.1930   14.2750 C   0  0  0  0  0  0  0  0  0  0  0  0
   52.5840   51.8840   18.1200 C   0  0  0  0  0  0  0  0  0  0  0  0
   51.4220   50.9800   17.7990 C   0  0  1  0  0  0  0  0  0  0  0  0
   50.4720   50.5570   18.8900 C   0  0  0  0  0  0  0  0  0  0  0  0
   50.9050   51.1690   20.1970 C   0  0  0  0  0  0  0  0  0  0  0  0
   50.5800   52.4470   20.4830 N   0  0  0  0  0  0  0  0  0  0  0  0
   50.0000   53.0400   19.7620 H   0  0  0  0  0  0  0  0  0  0  0  0
   51.5440   50.5140   20.9920 O   0  0  0  0  0  0  0  0  0  0  0  0
   51.0010   53.0420   21.7530 C   0  0  0  0  0  0  0  0  0  0  0  0
   51.5300   54.4320   21.5060 C   0  0  0  0  0  0  0  0  0  0  0  0
   51.9580   54.7920   20.2420 C   0  0  0  0  0  0  0  0  0  0  0  0
   52.4390   56.0690   20.0130 C   0  0  0  0  0  0  0  0  0  0  0  0
   52.5010   56.9800   21.0530 C   0  0  0  0  0  0  0  0  0  0  0  0
   52.9750   58.2260   20.8300 F   0  0  0  0  0  0  0  0  0  0  0  0
   52.0780   56.6150   22.3190 C   0  0  0  0  0  0  0  0  0  0  0  0
   51.5920   55.3420   22.5450 C   0  0  0  0  0  0  0  0  0  0  0  0
  2  1  1  0  0  0  0
  3  4  1  0  0  0  0
  3  1  1  0  0  0  0
  5  3  1  0  0  0  0
  6  5  2  0  0  0  0
  7  5  1  0  0  0  0
  7  8  1  0  0  0  0
  8  9  1  0  0  0  0
  9 10  2  0  0  0  0
 11 10  1  0  0  0  0
 11 14  1  0  0  0  0
 12 11  2  0  0  0  0
 13  8  2  0  0  0  0
 13 12  1  0  0  0  0
 14 15  1  0  0  0  0
 16 12  1  0  0  0  0
 17 16  1  0  0  0  0
 19  1  1  6  0  0  0
 19 18  1  0  0  0  0
 19 20  1  0  0  0  0
 20 21  1  0  0  0  0
 21 22  1  0  0  0  0
 21 24  2  0  0  0  0
 22 25  1  0  0  0  0
 23 22  1  0  0  0  0
 26 25  1  0  0  0  0
 26 32  2  0  0  0  0
 27 26  1  0  0  0  0
 28 27  2  0  0  0  0
 28 29  1  0  0  0  0
 29 31  2  0  0  0  0
 30 29  1  0  0  0  0
 31 32  1  0  0  0  0
M  END
>  <MODEL>
4

>  <REMARK>
  Name = ZINC20158276
                            x       y       z     vdW  Elec       q    Type
                         _______ _______ _______ _____ _____    ______ ____

>  <TORSDO>
F 9

>  <minimizedAffinity>
-9.1658509466759259

$$$$
ZINC20158276
 OpenBabel10211213373D

 32 33  0  0  1  0  0  0  0  0999 V2000
   48.5620   54.5060   17.5070 N   0  0  0  0  0  0  0  0  0  0  0  0
   48.4870   55.1720   16.6350 H   0  0  0  0  0  0  0  0  0  0  0  0
   48.5660   55.0450   18.8010 N   0  0  0  0  0  0  0  0  0  0  0  0
   48.7580   54.3940   19.6660 H   0  0  0  0  0  0  0  0  0  0  0  0
   48.3340   56.3600   18.9830 C   0  0  0  0  0  0  0  0  0  0  0  0
   48.1210   57.0770   18.0290 O   0  0  0  0  0  0  0  0  0  0  0  0
   48.3370   56.9390   20.3750 C   0  0  0  0  0  0  0  0  0  0  0  0
   49.7460   56.9510   20.9110 C   0  0  0  0  0  0  0  0  0  0  0  0
   50.5180   58.0920   20.7950 C   0  0  0  0  0  0  0  0  0  0  0  0
   51.8080   58.1090   21.2900 C   0  0  0  0  0  0  0  0  0  0  0  0
   52.3340   56.9790   21.8950 C   0  0  0  0  0  0  0  0  0  0  0  0
   51.5590   55.8290   22.0070 C   0  0  0  0  0  0  0  0  0  0  0  0
   50.2640   55.8200   21.5130 C   0  0  0  0  0  0  0  0  0  0  0  0
   53.6060   56.9940   22.3780 O   0  0  0  0  0  0  0  0  0  0  0  0
   54.5680   57.7580   21.6490 C   0  0  0  0  0  0  0  0  0  0  0  0
   52.0710   54.7180   22.6000 O   0  0  0  0  0  0  0  0  0  0  0  0
   51.6460   53.4540   22.0850 C   0  0  0  0  0  0  0  0  0  0  0  0
   47.5670   52.5070   16.5830 C   0  0  0  0  0  0  0  0  0  0  0  0
   48.6450   53.2400   17.3410 C   0  0  1  0  0  0  0  0  0  0  0  0
   49.8210   52.4810   17.9010 C   0  0  0  0  0  0  0  0  0  0  0  0
   49.6790   51.0180   17.5690 C   0  0  0  0  0  0  0  0  0  0  0  0
   48.9500   50.2140   18.3680 N   0  0  0  0  0  0  0  0  0  0  0  0
   48.4590   50.6250   19.2620 H   0  0  0  0  0  0  0  0  0  0  0  0
   50.2190   50.5650   16.5820 O   0  0  0  0  0  0  0  0  0  0  0  0
   48.8110   48.7920   18.0450 C   0  0  0  0  0  0  0  0  0  0  0  0
   47.5520   48.5780   17.2440 C   0  0  0  0  0  0  0  0  0  0  0  0
   47.6210   47.9890   15.9950 C   0  0  0  0  0  0  0  0  0  0  0  0
   46.4660   47.7870   15.2620 C   0  0  0  0  0  0  0  0  0  0  0  0
   45.2430   48.1850   15.7740 C   0  0  0  0  0  0  0  0  0  0  0  0
   44.1150   47.9920   15.0560 F   0  0  0  0  0  0  0  0  0  0  0  0
   45.1780   48.7810   17.0220 C   0  0  0  0  0  0  0  0  0  0  0  0
   46.3320   48.9770   17.7560 C   0  0  0  0  0  0  0  0  0  0  0  0
  1  3  1  0  0  0  0
  2  1  1  0  0  0  0
  3  5  1  0  0  0  0
  3  4  1  0  0  0  0
  5  7  1  0  0  0  0
  6  5  2  0  0  0  0
  7  8  1  0  0  0  0
  8 13  1  0  0  0  0
  9  8  2  0  0  0  0
  9 10  1  0  0  0  0
 10 11  2  0  0  0  0
 11 12  1  0  0  0  0
 11 14  1  0  0  0  0
 12 16  1  0  0  0  0
 13 12  2  0  0  0  0
 15 14  1  0  0  0  0
 17 16  1  0  0  0  0
 19 18  1  6  0  0  0
 19  1  1  0  0  0  0
 19 20  1  0  0  0  0
 21 20  1  0  0  0  0
 21 22  1  0  0  0  0
 22 23  1  0  0  0  0
 24 21  2  0  0  0  0
 25 22  1  0  0  0  0
 26 32  1  0  0  0  0
 26 25  1  0  0  0  0
 27 26  2  0  0  0  0
 28 29  2  0  0  0  0
 28 27  1  0  0  0  0
 29 31  1  0  0  0  0
 30 29  1  0  0  0  0
 31 32  2  0  0  0  0
M  END
>  <MODEL>
5

>  <REMARK>
  Name = ZINC20158276
                            x       y       z     vdW  Elec       q    Type
                         _______ _______ _______ _____ _____    ______ ____

>  <TORSDO>
F 9

>  <minimizedAffinity>
-9.0338520555017325

$$$$
ZINC20158276
 OpenBabel10211213373D

 32 33  0  0  1  0  0  0  0  0999 V2000
   49.4410   48.9090   18.4200 N   0  0  0  0  0  0  0  0  0  0  0  0
   49.6920   47.8380   18.4530 H   0  0  0  0  0  0  0  0  0  0  0  0
   48.3030   49.3410   17.7270 N   0  0  0  0  0  0  0  0  0  0  0  0
   48.4110   49.9710   16.8320 H   0  0  0  0  0  0  0  0  0  0  0  0
   47.0770   48.9840   18.1580 C   0  0  0  0  0  0  0  0  0  0  0  0
   46.9580   48.2900   19.1460 O   0  0  0  0  0  0  0  0  0  0  0  0
   45.8520   49.4500   17.4130 C   0  0  0  0  0  0  0  0  0  0  0  0
   45.6840   48.6280   16.1600 C   0  0  0  0  0  0  0  0  0  0  0  0
   46.4860   48.8740   15.0610 C   0  0  0  0  0  0  0  0  0  0  0  0
   46.3380   48.1200   13.9120 C   0  0  0  0  0  0  0  0  0  0  0  0
   45.3790   47.1220   13.8560 C   0  0  0  0  0  0  0  0  0  0  0  0
   44.5690   46.8780   14.9610 C   0  0  0  0  0  0  0  0  0  0  0  0
   44.7250   47.6340   16.1120 C   0  0  0  0  0  0  0  0  0  0  0  0
   45.2300   46.3820   12.7250 O   0  0  0  0  0  0  0  0  0  0  0  0
   44.4930   46.9760   11.6550 C   0  0  0  0  0  0  0  0  0  0  0  0
   43.6260   45.8990   14.9110 O   0  0  0  0  0  0  0  0  0  0  0  0
   42.3010   46.2910   14.5460 C   0  0  0  0  0  0  0  0  0  0  0  0
   50.4540   51.1020   18.3830 C   0  0  0  0  0  0  0  0  0  0  0  0
   50.1900   49.7600   19.0150 C   0  0  2  0  0  0  0  0  0  0  0  0
   50.8080   49.4200   20.3470 C   0  0  0  0  0  0  0  0  0  0  0  0
   51.6370   50.5830   20.8270 C   0  0  0  0  0  0  0  0  0  0  0  0
   51.0590   51.5780   21.5300 N   0  0  0  0  0  0  0  0  0  0  0  0
   49.9830   51.5400   21.7530 H   0  0  0  0  0  0  0  0  0  0  0  0
   52.8240   50.6240   20.5830 O   0  0  0  0  0  0  0  0  0  0  0  0
   51.8650   52.7080   21.9970 C   0  0  0  0  0  0  0  0  0  0  0  0
   51.1690   53.9990   21.6500 C   0  0  0  0  0  0  0  0  0  0  0  0
   50.1610   54.0070   20.7040 C   0  0  0  0  0  0  0  0  0  0  0  0
   49.5170   55.1900   20.3890 C   0  0  0  0  0  0  0  0  0  0  0  0
   49.8920   56.3670   21.0130 C   0  0  0  0  0  0  0  0  0  0  0  0
   49.2670   57.5240   20.7030 F   0  0  0  0  0  0  0  0  0  0  0  0
   50.9060   56.3580   21.9560 C   0  0  0  0  0  0  0  0  0  0  0  0
   51.5430   55.1750   22.2740 C   0  0  0  0  0  0  0  0  0  0  0  0
  1  2  1  0  0  0  0
  1 19  1  0  0  0  0
  3  5  1  0  0  0  0
  3  1  1  0  0  0  0
  4  3  1  0  0  0  0
  5  6  2  0  0  0  0
  7  5  1  0  0  0  0
  8  7  1  0  0  0  0
  9  8  2  0  0  0  0
 10  9  1  0  0  0  0
 11 10  2  0  0  0  0
 11 12  1  0  0  0  0
 12 13  2  0  0  0  0
 13  8  1  0  0  0  0
 14 11  1  0  0  0  0
 15 14  1  0  0  0  0
 16 12  1  0  0  0  0
 17 16  1  0  0  0  0
 19 18  1  6  0  0  0
 19 20  1  0  0  0  0
 20 21  1  0  0  0  0
 21 22  1  0  0  0  0
 22 23  1  0  0  0  0
 22 25  1  0  0  0  0
 24 21  2  0  0  0  0
 26 25  1  0  0  0  0
 26 32  2  0  0  0  0
 27 26  1  0  0  0  0
 28 27  2  0  0  0  0
 28 29  1  0  0  0  0
 29 31  2  0  0  0  0
 30 29  1  0  0  0  0
 31 32  1  0  0  0  0
M  END
>  <MODEL>
6

>  <REMARK>
  Name = ZINC20158276
                            x       y       z     vdW  Elec       q    Type
                         _______ _______ _______ _____ _____    ______ ____

>  <TORSDO>
F 9

>  <minimizedAffinity>
-8.9382332254753223

$$$$
ZINC20158276
 OpenBabel10211213373D

 32 33  0  0  1  0  0  0  0  0999 V2000
   51.5220   51.1030   17.6290 N   0  0  0  0  0  0  0  0  0  0  0  0
   52.4610   51.0290   17.0600 H   0  0  0  0  0  0  0  0  0  0  0  0
   51.5350   51.5960   18.9400 N   0  0  0  0  0  0  0  0  0  0  0  0
   51.1570   50.9740   19.7650 H   0  0  0  0  0  0  0  0  0  0  0  0
   52.0090   52.8330   19.1900 C   0  0  0  0  0  0  0  0  0  0  0  0
   52.4250   53.5190   18.2800 O   0  0  0  0  0  0  0  0  0  0  0  0
   52.0220   53.3630   20.6000 C   0  0  0  0  0  0  0  0  0  0  0  0
   51.1120   54.5620   20.6950 C   0  0  0  0  0  0  0  0  0  0  0  0
   49.7880   54.4550   20.3130 C   0  0  0  0  0  0  0  0  0  0  0  0
   48.9490   55.5500   20.4030 C   0  0  0  0  0  0  0  0  0  0  0  0
   49.4370   56.7600   20.8670 C   0  0  0  0  0  0  0  0  0  0  0  0
   50.7710   56.8700   21.2470 C   0  0  0  0  0  0  0  0  0  0  0  0
   51.6060   55.7660   21.1590 C   0  0  0  0  0  0  0  0  0  0  0  0
   48.6140   57.8400   20.9520 O   0  0  0  0  0  0  0  0  0  0  0  0
   48.0410   58.3150   19.7330 C   0  0  0  0  0  0  0  0  0  0  0  0
   51.2550   58.0550   21.7040 O   0  0  0  0  0  0  0  0  0  0  0  0
   52.6750   58.2160   21.7150 C   0  0  0  0  0  0  0  0  0  0  0  0
   49.1220   50.9240   17.8370 C   0  0  0  0  0  0  0  0  0  0  0  0
   50.4190   50.7380   17.0920 C   0  0  1  0  0  0  0  0  0  0  0  0
   50.4170   50.1240   15.7160 C   0  0  0  0  0  0  0  0  0  0  0  0
   49.0020   49.7870   15.3190 C   0  0  0  0  0  0  0  0  0  0  0  0
   48.5130   48.5530   15.5540 N   0  0  0  0  0  0  0  0  0  0  0  0
   49.1460   47.7930   16.0350 H   0  0  0  0  0  0  0  0  0  0  0  0
   48.3040   50.6250   14.7900 O   0  0  0  0  0  0  0  0  0  0  0  0
   47.1390   48.2250   15.1690 C   0  0  0  0  0  0  0  0  0  0  0  0
   46.3120   47.9870   16.4070 C   0  0  0  0  0  0  0  0  0  0  0  0
   46.9060   48.0460   17.6540 C   0  0  0  0  0  0  0  0  0  0  0  0
   46.1470   47.8340   18.7910 C   0  0  0  0  0  0  0  0  0  0  0  0
   44.7960   47.5530   18.6790 C   0  0  0  0  0  0  0  0  0  0  0  0
   44.0560   47.3420   19.7890 F   0  0  0  0  0  0  0  0  0  0  0  0
   44.2050   47.4890   17.4280 C   0  0  0  0  0  0  0  0  0  0  0  0
   44.9630   47.7070   16.2940 C   0  0  0  0  0  0  0  0  0  0  0  0
  1  3  1  0  0  0  0
  2  1  1  0  0  0  0
  3  5  1  0  0  0  0
  3  4  1  0  0  0  0
  5  7  1  0  0  0  0
  6  5  2  0  0  0  0
  7  8  1  0  0  0  0
  8 13  2  0  0  0  0
  9 10  2  0  0  0  0
  9  8  1  0  0  0  0
 10 11  1  0  0  0  0
 11 14  1  0  0  0  0
 11 12  2  0  0  0  0
 12 16  1  0  0  0  0
 13 12  1  0  0  0  0
 15 14  1  0  0  0  0
 16 17  1  0  0  0  0
 19 20  1  6  0  0  0
 19  1  1  0  0  0  0
 19 18  1  0  0  0  0
 21 22  1  0  0  0  0
 21 20  1  0  0  0  0
 22 23  1  0  0  0  0
 24 21  2  0  0  0  0
 25 22  1  0  0  0  0
 25 26  1  0  0  0  0
 26 27  1  0  0  0  0
 27 28  2  0  0  0  0
 29 28  1  0  0  0  0
 29 30  1  0  0  0  0
 31 29  2  0  0  0  0
 32 26  2  0  0  0  0
 32 31  1  0  0  0  0
M  END
>  <MODEL>
7

>  <REMARK>
  Name = ZINC20158276
                            x       y       z     vdW  Elec       q    Type
                         _______ _______ _______ _____ _____    ______ ____

>  <TORSDO>
F 9

>  <minimizedAffinity>
-8.6531945039657483

$$$$
ZINC20158276
 OpenBabel10211213373D

 32 33  0  0  1  0  0  0  0  0999 V2000
   50.3690   54.2300   20.7850 N   0  0  0  0  0  0  0  0  0  0  0  0
   51.1280   54.5680   21.5060 H   0  0  0  0  0  0  0  0  0  0  0  0
   50.3620   52.8990   20.3470 N   0  0  0  0  0  0  0  0  0  0  0  0
   49.4570   52.2860   20.4670 H   0  0  0  0  0  0  0  0  0  0  0  0
   51.4650   52.3720   19.7800 C   0  0  0  0  0  0  0  0  0  0  0  0
   52.4630   53.0480   19.6480 O   0  0  0  0  0  0  0  0  0  0  0  0
   51.4580   50.9400   19.3100 C   0  0  0  0  0  0  0  0  0  0  0  0
   50.1450   50.6390   18.6340 C   0  0  0  0  0  0  0  0  0  0  0  0
   49.3580   49.5960   19.0880 C   0  0  0  0  0  0  0  0  0  0  0  0
   48.1510   49.3200   18.4740 C   0  0  0  0  0  0  0  0  0  0  0  0
   47.7310   50.0830   17.3960 C   0  0  0  0  0  0  0  0  0  0  0  0
   48.5250   51.1290   16.9360 C   0  0  0  0  0  0  0  0  0  0  0  0
   49.7320   51.4030   17.5590 C   0  0  0  0  0  0  0  0  0  0  0  0
   46.5450   49.8100   16.7890 O   0  0  0  0  0  0  0  0  0  0  0  0
   45.5570   49.1330   17.5690 C   0  0  0  0  0  0  0  0  0  0  0  0
   48.1170   51.8800   15.8790 O   0  0  0  0  0  0  0  0  0  0  0  0
   47.5600   53.1640   16.1720 C   0  0  0  0  0  0  0  0  0  0  0  0
   48.4820   54.6020   19.3220 C   0  0  0  0  0  0  0  0  0  0  0  0
   49.4930   55.0530   20.3460 C   0  0  2  0  0  0  0  0  0  0  0  0
   49.4720   56.4730   20.8510 C   0  0  0  0  0  0  0  0  0  0  0  0
   48.3530   57.2280   20.1800 C   0  0  0  0  0  0  0  0  0  0  0  0
   48.5670   57.8430   19.0000 N   0  0  0  0  0  0  0  0  0  0  0  0
   49.5590   57.7930   18.5270 H   0  0  0  0  0  0  0  0  0  0  0  0
   47.2600   57.2820   20.7020 O   0  0  0  0  0  0  0  0  0  0  0  0
   47.4800   58.5760   18.3480 C   0  0  0  0  0  0  0  0  0  0  0  0
   47.2820   58.0450   16.9510 C   0  0  0  0  0  0  0  0  0  0  0  0
   48.1740   57.1280   16.4290 C   0  0  0  0  0  0  0  0  0  0  0  0
   47.9900   56.6360   15.1490 C   0  0  0  0  0  0  0  0  0  0  0  0
   46.9180   57.0710   14.3890 C   0  0  0  0  0  0  0  0  0  0  0  0
   46.7410   56.5950   13.1370 F   0  0  0  0  0  0  0  0  0  0  0  0
   46.0290   57.9940   14.9120 C   0  0  0  0  0  0  0  0  0  0  0  0
   46.2110   58.4810   16.1920 C   0  0  0  0  0  0  0  0  0  0  0  0
  1  2  1  0  0  0  0
  3  4  1  0  0  0  0
  3  1  1  0  0  0  0
  5  3  1  0  0  0  0
  6  5  2  0  0  0  0
  7  5  1  0  0  0  0
  8  9  1  0  0  0  0
  8  7  1  0  0  0  0
 10  9  2  0  0  0  0
 11 10  1  0  0  0  0
 12 11  2  0  0  0  0
 12 13  1  0  0  0  0
 13  8  2  0  0  0  0
 14 11  1  0  0  0  0
 14 15  1  0  0  0  0
 16 17  1  0  0  0  0
 16 12  1  0  0  0  0
 19 18  1  6  0  0  0
 19  1  1  0  0  0  0
 19 20  1  0  0  0  0
 21 24  2  0  0  0  0
 21 20  1  0  0  0  0
 22 21  1  0  0  0  0
 23 22  1  0  0  0  0
 25 22  1  0  0  0  0
 26 25  1  0  0  0  0
 27 26  1  0  0  0  0
 28 27  2  0  0  0  0
 29 31  2  0  0  0  0
 29 28  1  0  0  0  0
 30 29  1  0  0  0  0
 31 32  1  0  0  0  0
 32 26  2  0  0  0  0
M  END
>  <MODEL>
8

>  <REMARK>
  Name = ZINC20158276
                            x       y       z     vdW  Elec       q    Type
                         _______ _______ _______ _____ _____    ______ ____

>  <TORSDO>
F 9

>  <minimizedAffinity>
-8.1454650989530357

$$$$
ZINC20158276
 OpenBabel10211213373D

 32 33  0  0  1  0  0  0  0  0999 V2000
   50.0000   50.9600   17.3470 N   0  0  0  0  0  0  0  0  0  0  0  0
   50.6220   51.5210   16.6340 H   0  0  0  0  0  0  0  0  0  0  0  0
   49.8820   51.4030   18.6710 N   0  0  0  0  0  0  0  0  0  0  0  0
   49.1100   50.9750   19.3270 H   0  0  0  0  0  0  0  0  0  0  0  0
   50.7130   52.3550   19.1400 C   0  0  0  0  0  0  0  0  0  0  0  0
   51.5640   52.8280   18.4160 O   0  0  0  0  0  0  0  0  0  0  0  0
   50.5850   52.8310   20.5640 C   0  0  0  0  0  0  0  0  0  0  0  0
   50.0640   54.2460   20.5750 C   0  0  0  0  0  0  0  0  0  0  0  0
   48.9270   54.5680   19.8590 C   0  0  0  0  0  0  0  0  0  0  0  0
   48.4430   55.8630   19.8710 C   0  0  0  0  0  0  0  0  0  0  0  0
   49.1030   56.8430   20.5940 C   0  0  0  0  0  0  0  0  0  0  0  0
   50.2510   56.5200   21.3100 C   0  0  0  0  0  0  0  0  0  0  0  0
   50.7290   55.2190   21.2980 C   0  0  0  0  0  0  0  0  0  0  0  0
   48.6300   58.1180   20.6030 O   0  0  0  0  0  0  0  0  0  0  0  0
   47.6900   58.4680   19.5860 C   0  0  0  0  0  0  0  0  0  0  0  0
   50.9030   57.4780   22.0210 O   0  0  0  0  0  0  0  0  0  0  0  0
   52.0940   58.0170   21.4450 C   0  0  0  0  0  0  0  0  0  0  0  0
   49.1970   49.6290   15.4970 C   0  0  0  0  0  0  0  0  0  0  0  0
   49.3850   49.9040   16.9680 C   0  0  1  0  0  0  0  0  0  0  0  0
   48.8490   48.9350   17.9900 C   0  0  0  0  0  0  0  0  0  0  0  0
   48.1740   47.7860   17.2870 C   0  0  0  0  0  0  0  0  0  0  0  0
   46.8440   47.8170   17.0680 N   0  0  0  0  0  0  0  0  0  0  0  0
   46.2530   48.6820   17.4030 H   0  0  0  0  0  0  0  0  0  0  0  0
   48.8270   46.8330   16.9170 O   0  0  0  0  0  0  0  0  0  0  0  0
   46.1880   46.7010   16.3850 C   0  0  0  0  0  0  0  0  0  0  0  0
   45.4910   47.2080   15.1480 C   0  0  0  0  0  0  0  0  0  0  0  0
   46.2190   47.8310   14.1520 C   0  0  0  0  0  0  0  0  0  0  0  0
   45.5810   48.2910   13.0150 C   0  0  0  0  0  0  0  0  0  0  0  0
   44.2120   48.1370   12.8790 C   0  0  0  0  0  0  0  0  0  0  0  0
   43.5880   48.5900   11.7700 F   0  0  0  0  0  0  0  0  0  0  0  0
   43.4840   47.5170   13.8800 C   0  0  0  0  0  0  0  0  0  0  0  0
   44.1240   47.0530   15.0140 C   0  0  0  0  0  0  0  0  0  0  0  0
  1  3  1  0  0  0  0
  2  1  1  0  0  0  0
  3  5  1  0  0  0  0
  3  4  1  0  0  0  0
  5  7  1  0  0  0  0
  6  5  2  0  0  0  0
  7  8  1  0  0  0  0
  8 13  2  0  0  0  0
  9 10  2  0  0  0  0
  9  8  1  0  0  0  0
 10 11  1  0  0  0  0
 11 14  1  0  0  0  0
 11 12  2  0  0  0  0
 12 16  1  0  0  0  0
 13 12  1  0  0  0  0
 15 14  1  0  0  0  0
 17 16  1  0  0  0  0
 19 18  1  6  0  0  0
 19  1  1  0  0  0  0
 19 20  1  0  0  0  0
 21 20  1  0  0  0  0
 22 21  1  0  0  0  0
 22 23  1  0  0  0  0
 24 21  2  0  0  0  0
 25 22  1  0  0  0  0
 26 25  1  0  0  0  0
 27 26  2  0  0  0  0
 28 27  1  0  0  0  0
 29 28  2  0  0  0  0
 29 31  1  0  0  0  0
 30 29  1  0  0  0  0
 31 32  2  0  0  0  0
 32 26  1  0  0  0  0
M  END
>  <MODEL>
9

>  <REMARK>
  Name = ZINC20158276
                            x       y       z     vdW  Elec       q    Type
                         _______ _______ _______ _____ _____    ______ ____

>  <TORSDO>
F 9

>  <minimizedAffinity>
-8.1161410093394828

$$$$
ZINC67193879
 OpenBabel10211213393D

 28 29  0  0  0  0  0  0  0  0999 V2000
   52.2500   52.5370   18.0760 N   0  0  0  0  0  0  0  0  0  0  0  0
   52.8700   52.9050   17.4280 H   0  0  0  0  0  0  0  0  0  0  0  0
   51.5880   54.8370   20.8740 C   0  0  0  0  0  0  0  0  0  0  0  0
   50.2310   55.0690   20.7080 C   0  0  0  0  0  0  0  0  0  0  0  0
   49.5440   54.4640   19.6730 C   0  0  0  0  0  0  0  0  0  0  0  0
   50.2110   53.6220   18.7970 C   0  0  0  0  0  0  0  0  0  0  0  0
   51.5740   53.3880   18.9600 C   0  0  0  0  0  0  0  0  0  0  0  0
   52.2610   54.0010   19.9970 C   0  0  0  0  0  0  0  0  0  0  0  0
   52.2600   55.4350   21.8940 O   0  0  0  0  0  0  0  0  0  0  0  0
   53.3460   57.4220   21.0500 C   0  0  0  0  0  0  0  0  0  0  0  0
   52.2350   56.8630   21.9400 C   0  0  0  0  0  0  0  0  0  0  0  0
   49.5340   53.0260   17.7780 O   0  0  0  0  0  0  0  0  0  0  0  0
   48.1240   53.2490   17.7170 C   0  0  0  0  0  0  0  0  0  0  0  0
   47.6810   53.3220   16.2550 C   0  0  0  0  0  0  0  0  0  0  0  0
   52.0380   51.2070   18.1260 C   0  0  0  0  0  0  0  0  0  0  0  0
   52.5340   50.3130   19.4980 S   0  0  0  0  0  0  0  0  0  0  0  0
   51.4350   50.5820   17.0960 N   0  0  0  0  0  0  0  0  0  0  0  0
   51.9150   50.4430   16.2640 H   0  0  0  0  0  0  0  0  0  0  0  0
   50.1160   50.1310   17.2250 N   0  0  0  0  0  0  0  0  0  0  0  0
   49.7490   49.9490   18.1040 H   0  0  0  0  0  0  0  0  0  0  0  0
   49.3540   49.9510   16.1270 C   0  0  0  0  0  0  0  0  0  0  0  0
   49.8130   50.1780   15.0240 O   0  0  0  0  0  0  0  0  0  0  0  0
   47.9740   49.4790   16.2630 C   0  0  0  0  0  0  0  0  0  0  0  0
   47.0380   49.7860   17.2400 C   0  0  0  0  0  0  0  0  0  0  0  0
   45.8110   49.1840   17.1020 C   0  0  0  0  0  0  0  0  0  0  0  0
   45.6000   48.3520   16.0490 C   0  0  0  0  0  0  0  0  0  0  0  0
   44.1530   47.4780   15.6540 Cl  0  0  0  0  0  0  0  0  0  0  0  0
   47.0570   48.3680   15.2140 S   0  0  0  0  0  0  0  0  0  0  0  0
  1 15  1  0  0  0  0
  1  7  1  0  0  0  0
  2  1  1  0  0  0  0
  3  9  1  0  0  0  0
  4  3  1  0  0  0  0
  5  4  2  0  0  0  0
  6  7  2  0  0  0  0
  6  5  1  0  0  0  0
  7  8  1  0  0  0  0
  8  3  2  0  0  0  0
  9 11  1  0  0  0  0
 10 11  1  0  0  0  0
 12  6  1  0  0  0  0
 13 12  1  0  0  0  0
 14 13  1  0  0  0  0
 15 16  2  0  0  0  0
 17 19  1  0  0  0  0
 17 15  1  0  0  0  0
 18 17  1  0  0  0  0
 19 20  1  0  0  0  0
 21 23  1  0  0  0  0
 21 19  1  0  0  0  0
 22 21  2  0  0  0  0
 23 24  2  0  0  0  0
 25 24  1  0  0  0  0
 26 25  2  0  0  0  0
 27 26  1  0  0  0  0
 28 26  1  0  0  0  0
 28 23  1  0  0  0  0
M  END
>  <MODEL>
1

>  <REMARK>
  Name = ZINC67193879
                            x       y       z     vdW  Elec       q    Type
                         _______ _______ _______ _____ _____    ______ ____

>  <TORSDO>
F 9

>  <minimizedAffinity>
-7.7316880060503914

$$$$
ZINC67193879
 OpenBabel10211213393D

 28 29  0  0  0  0  0  0  0  0999 V2000
   50.1960   49.7330   17.4120 N   0  0  0  0  0  0  0  0  0  0  0  0
   50.6810   49.2100   16.7550 H   0  0  0  0  0  0  0  0  0  0  0  0
   46.7950   48.4430   17.9820 C   0  0  0  0  0  0  0  0  0  0  0  0
   46.0310   49.5310   17.5830 C   0  0  0  0  0  0  0  0  0  0  0  0
   46.6460   50.6820   17.1290 C   0  0  0  0  0  0  0  0  0  0  0  0
   48.0290   50.7530   17.0710 C   0  0  0  0  0  0  0  0  0  0  0  0
   48.7980   49.6640   17.4700 C   0  0  0  0  0  0  0  0  0  0  0  0
   48.1780   48.5120   17.9310 C   0  0  0  0  0  0  0  0  0  0  0  0
   46.1860   47.3130   18.4290 O   0  0  0  0  0  0  0  0  0  0  0  0
   44.3790   46.8780   19.9740 C   0  0  0  0  0  0  0  0  0  0  0  0
   44.7650   47.3530   18.5720 C   0  0  0  0  0  0  0  0  0  0  0  0
   48.6330   51.8870   16.6230 O   0  0  0  0  0  0  0  0  0  0  0  0
   47.7820   52.9700   16.2420 C   0  0  0  0  0  0  0  0  0  0  0  0
   48.2460   54.2520   16.9360 C   0  0  0  0  0  0  0  0  0  0  0  0
   50.8670   50.5290   18.2680 C   0  0  0  0  0  0  0  0  0  0  0  0
   51.1380   50.0160   19.8790 S   0  0  0  0  0  0  0  0  0  0  0  0
   51.3260   51.7270   17.8560 N   0  0  0  0  0  0  0  0  0  0  0  0
   51.9360   51.7810   17.1040 H   0  0  0  0  0  0  0  0  0  0  0  0
   50.9210   52.8960   18.5140 N   0  0  0  0  0  0  0  0  0  0  0  0
   49.9810   53.0490   18.6980 H   0  0  0  0  0  0  0  0  0  0  0  0
   51.8390   53.8080   18.8930 C   0  0  0  0  0  0  0  0  0  0  0  0
   53.0190   53.6170   18.6620 O   0  0  0  0  0  0  0  0  0  0  0  0
   51.4160   55.0300   19.5800 C   0  0  0  0  0  0  0  0  0  0  0  0
   52.0930   56.2320   19.7230 C   0  0  0  0  0  0  0  0  0  0  0  0
   51.4340   57.2090   20.4290 C   0  0  0  0  0  0  0  0  0  0  0  0
   50.1990   56.9420   20.9270 C   0  0  0  0  0  0  0  0  0  0  0  0
   49.1690   57.9970   21.8440 Cl  0  0  0  0  0  0  0  0  0  0  0  0
   49.8940   55.3630   20.4470 S   0  0  0  0  0  0  0  0  0  0  0  0
  1  7  1  0  0  0  0
  1 15  1  0  0  0  0
  2  1  1  0  0  0  0
  3  9  1  0  0  0  0
  4  3  2  0  0  0  0
  5  4  1  0  0  0  0
  6  5  2  0  0  0  0
  6  7  1  0  0  0  0
  7  8  2  0  0  0  0
  8  3  1  0  0  0  0
  9 11  1  0  0  0  0
 11 10  1  0  0  0  0
 12  6  1  0  0  0  0
 13 12  1  0  0  0  0
 13 14  1  0  0  0  0
 15 16  2  0  0  0  0
 17 15  1  0  0  0  0
 17 19  1  0  0  0  0
 18 17  1  0  0  0  0
 19 20  1  0  0  0  0
 19 21  1  0  0  0  0
 21 23  1  0  0  0  0
 22 21  2  0  0  0  0
 23 24  2  0  0  0  0
 23 28  1  0  0  0  0
 24 25  1  0  0  0  0
 25 26  2  0  0  0  0
 26 27  1  0  0  0  0
 28 26  1  0  0  0  0
M  END
>  <MODEL>
2

>  <REMARK>
  Name = ZINC67193879
                            x       y       z     vdW  Elec       q    Type
                         _______ _______ _______ _____ _____    ______ ____

>  <TORSDO>
F 9

>  <minimizedAffinity>
-7.4854669459304786

$$$$
ZINC67193879
 OpenBabel10211213393D

 28 29  0  0  0  0  0  0  0  0999 V2000
   50.5250   49.8720   17.9680 N   0  0  0  0  0  0  0  0  0  0  0  0
   51.1920   49.2530   17.6320 H   0  0  0  0  0  0  0  0  0  0  0  0
   47.0660   48.6900   18.4080 C   0  0  0  0  0  0  0  0  0  0  0  0
   46.4740   49.1690   17.2480 C   0  0  0  0  0  0  0  0  0  0  0  0
   47.2240   49.8800   16.3290 C   0  0  0  0  0  0  0  0  0  0  0  0
   48.5690   50.1150   16.5650 C   0  0  0  0  0  0  0  0  0  0  0  0
   49.1650   49.6350   17.7280 C   0  0  0  0  0  0  0  0  0  0  0  0
   48.4090   48.9280   18.6510 C   0  0  0  0  0  0  0  0  0  0  0  0
   46.3250   47.9930   19.3100 O   0  0  0  0  0  0  0  0  0  0  0  0
   44.2990   46.8760   20.0100 C   0  0  0  0  0  0  0  0  0  0  0  0
   45.1370   47.3630   18.8270 C   0  0  0  0  0  0  0  0  0  0  0  0
   49.3060   50.8130   15.6590 O   0  0  0  0  0  0  0  0  0  0  0  0
   49.4680   50.2300   14.3650 C   0  0  0  0  0  0  0  0  0  0  0  0
   50.6900   49.3100   14.3700 C   0  0  0  0  0  0  0  0  0  0  0  0
   50.9070   50.9610   18.6640 C   0  0  0  0  0  0  0  0  0  0  0  0
   51.3350   50.8150   20.3140 S   0  0  0  0  0  0  0  0  0  0  0  0
   50.9530   52.1650   18.0600 N   0  0  0  0  0  0  0  0  0  0  0  0
   51.2080   52.2300   17.1260 H   0  0  0  0  0  0  0  0  0  0  0  0
   50.6320   53.3220   18.7800 N   0  0  0  0  0  0  0  0  0  0  0  0
   51.3080   53.7620   19.3180 H   0  0  0  0  0  0  0  0  0  0  0  0
   49.3830   53.8260   18.7240 C   0  0  0  0  0  0  0  0  0  0  0  0
   48.5330   53.2750   18.0490 O   0  0  0  0  0  0  0  0  0  0  0  0
   49.0470   55.0370   19.4780 C   0  0  0  0  0  0  0  0  0  0  0  0
   47.9210   55.8420   19.3830 C   0  0  0  0  0  0  0  0  0  0  0  0
   47.8870   56.9220   20.2300 C   0  0  0  0  0  0  0  0  0  0  0  0
   48.9260   57.1270   21.0800 C   0  0  0  0  0  0  0  0  0  0  0  0
   49.1210   58.4060   22.2370 Cl  0  0  0  0  0  0  0  0  0  0  0  0
   49.9770   55.8570   20.7590 S   0  0  0  0  0  0  0  0  0  0  0  0
  1 15  1  0  0  0  0
  2  1  1  0  0  0  0
  3  8  1  0  0  0  0
  3  9  1  0  0  0  0
  4  3  2  0  0  0  0
  5  6  2  0  0  0  0
  5  4  1  0  0  0  0
  6  7  1  0  0  0  0
  7  1  1  0  0  0  0
  7  8  2  0  0  0  0
 11  9  1  0  0  0  0
 11 10  1  0  0  0  0
 12  6  1  0  0  0  0
 13 14  1  0  0  0  0
 13 12  1  0  0  0  0
 15 16  2  0  0  0  0
 17 15  1  0  0  0  0
 17 19  1  0  0  0  0
 18 17  1  0  0  0  0
 19 20  1  0  0  0  0
 21 19  1  0  0  0  0
 21 23  1  0  0  0  0
 22 21  2  0  0  0  0
 23 28  1  0  0  0  0
 24 23  2  0  0  0  0
 24 25  1  0  0  0  0
 25 26  2  0  0  0  0
 26 27  1  0  0  0  0
 28 26  1  0  0  0  0
M  END
>  <MODEL>
3

>  <REMARK>
  Name = ZINC67193879
                            x       y       z     vdW  Elec       q    Type
                         _______ _______ _______ _____ _____    ______ ____

>  <TORSDO>
F 9

>  <minimizedAffinity>
-7.4854093190757798

$$$$
ZINC67193879
 OpenBabel10211213393D

 28 29  0  0  0  0  0  0  0  0999 V2000
   50.9820   52.8740   18.0310 N   0  0  0  0  0  0  0  0  0  0  0  0
   51.7510   52.8850   17.4390 H   0  0  0  0  0  0  0  0  0  0  0  0
   51.8530   54.3130   21.3070 C   0  0  0  0  0  0  0  0  0  0  0  0
   51.5140   53.2660   22.1520 C   0  0  0  0  0  0  0  0  0  0  0  0
   51.0010   52.0920   21.6330 C   0  0  0  0  0  0  0  0  0  0  0  0
   50.8230   51.9580   20.2650 C   0  0  0  0  0  0  0  0  0  0  0  0
   51.1610   53.0070   19.4140 C   0  0  0  0  0  0  0  0  0  0  0  0
   51.6700   54.1860   19.9390 C   0  0  0  0  0  0  0  0  0  0  0  0
   52.3570   55.4650   21.8210 O   0  0  0  0  0  0  0  0  0  0  0  0
   50.5500   57.0690   21.9070 C   0  0  0  0  0  0  0  0  0  0  0  0
   51.5170   56.2000   22.7140 C   0  0  0  0  0  0  0  0  0  0  0  0
   50.3180   50.8020   19.7540 O   0  0  0  0  0  0  0  0  0  0  0  0
   51.1460   49.6400   19.8360 C   0  0  0  0  0  0  0  0  0  0  0  0
   50.5480   48.6580   20.8450 C   0  0  0  0  0  0  0  0  0  0  0  0
   49.7430   52.7290   17.5230 C   0  0  0  0  0  0  0  0  0  0  0  0
   48.6150   54.0110   17.6390 S   0  0  0  0  0  0  0  0  0  0  0  0
   49.3910   51.5740   16.9230 N   0  0  0  0  0  0  0  0  0  0  0  0
   49.8120   51.3130   16.0890 H   0  0  0  0  0  0  0  0  0  0  0  0
   48.4180   50.7510   17.5040 N   0  0  0  0  0  0  0  0  0  0  0  0
   48.3550   50.6800   18.4690 H   0  0  0  0  0  0  0  0  0  0  0  0
   47.5670   50.0580   16.7210 C   0  0  0  0  0  0  0  0  0  0  0  0
   47.6450   50.1460   15.5090 O   0  0  0  0  0  0  0  0  0  0  0  0
   46.5500   49.1970   17.3280 C   0  0  0  0  0  0  0  0  0  0  0  0
   45.2800   48.8830   16.8650 C   0  0  0  0  0  0  0  0  0  0  0  0
   44.5460   48.0390   17.6620 C   0  0  0  0  0  0  0  0  0  0  0  0
   45.0940   47.5790   18.8160 C   0  0  0  0  0  0  0  0  0  0  0  0
   44.3790   46.5120   19.9840 Cl  0  0  0  0  0  0  0  0  0  0  0  0
   46.6220   48.2740   18.8510 S   0  0  0  0  0  0  0  0  0  0  0  0
  1  7  1  0  0  0  0
  2  1  1  0  0  0  0
  3  9  1  0  0  0  0
  3  4  2  0  0  0  0
  5  4  1  0  0  0  0
  6  5  2  0  0  0  0
  7  8  2  0  0  0  0
  7  6  1  0  0  0  0
  8  3  1  0  0  0  0
  9 11  1  0  0  0  0
 10 11  1  0  0  0  0
 12 13  1  0  0  0  0
 12  6  1  0  0  0  0
 13 14  1  0  0  0  0
 15 16  2  0  0  0  0
 15  1  1  0  0  0  0
 17 19  1  0  0  0  0
 17 15  1  0  0  0  0
 18 17  1  0  0  0  0
 19 20  1  0  0  0  0
 21 23  1  0  0  0  0
 21 19  1  0  0  0  0
 22 21  2  0  0  0  0
 23 28  1  0  0  0  0
 24 23  2  0  0  0  0
 24 25  1  0  0  0  0
 25 26  2  0  0  0  0
 26 28  1  0  0  0  0
 26 27  1  0  0  0  0
M  END
>  <MODEL>
4

>  <REMARK>
  Name = ZINC67193879
                            x       y       z     vdW  Elec       q    Type
                         _______ _______ _______ _____ _____    ______ ____

>  <TORSDO>
F 9

>  <minimizedAffinity>
-7.4044390307464765

$$$$
ZINC67193879
 OpenBabel10211213393D

 28 29  0  0  0  0  0  0  0  0999 V2000
   51.8910   55.1570   19.5150 N   0  0  0  0  0  0  0  0  0  0  0  0
   52.6930   55.5060   19.0960 H   0  0  0  0  0  0  0  0  0  0  0  0
   48.8810   57.1060   20.3520 C   0  0  0  0  0  0  0  0  0  0  0  0
   49.2930   57.7410   21.5150 C   0  0  0  0  0  0  0  0  0  0  0  0
   50.5630   57.5200   22.0130 C   0  0  0  0  0  0  0  0  0  0  0  0
   51.4290   56.6630   21.3520 C   0  0  0  0  0  0  0  0  0  0  0  0
   51.0170   56.0240   20.1850 C   0  0  0  0  0  0  0  0  0  0  0  0
   49.7400   56.2430   19.6910 C   0  0  0  0  0  0  0  0  0  0  0  0
   47.6310   57.3260   19.8650 O   0  0  0  0  0  0  0  0  0  0  0  0
   47.2470   59.6220   19.2140 C   0  0  0  0  0  0  0  0  0  0  0  0
   47.5170   58.1940   18.7360 C   0  0  0  0  0  0  0  0  0  0  0  0
   52.6790   56.4470   21.8430 O   0  0  0  0  0  0  0  0  0  0  0  0
   53.5330   57.5850   21.9690 C   0  0  0  0  0  0  0  0  0  0  0  0
   54.1980   57.8760   20.6220 C   0  0  0  0  0  0  0  0  0  0  0  0
   51.6170   53.8390   19.4550 C   0  0  0  0  0  0  0  0  0  0  0  0
   51.8880   52.8450   20.8210 S   0  0  0  0  0  0  0  0  0  0  0  0
   51.1280   53.3040   18.3180 N   0  0  0  0  0  0  0  0  0  0  0  0
   51.5690   53.4770   17.4720 H   0  0  0  0  0  0  0  0  0  0  0  0
   49.9840   52.4980   18.3590 N   0  0  0  0  0  0  0  0  0  0  0  0
   49.1490   52.8570   18.6970 H   0  0  0  0  0  0  0  0  0  0  0  0
   50.0430   51.2210   17.9290 C   0  0  0  0  0  0  0  0  0  0  0  0
   51.0910   50.7690   17.5060 O   0  0  0  0  0  0  0  0  0  0  0  0
   48.8460   50.3780   17.9720 C   0  0  0  0  0  0  0  0  0  0  0  0
   48.6220   49.2150   18.6940 C   0  0  0  0  0  0  0  0  0  0  0  0
   47.3860   48.6390   18.5290 C   0  0  0  0  0  0  0  0  0  0  0  0
   46.4900   49.2280   17.6960 C   0  0  0  0  0  0  0  0  0  0  0  0
   44.8780   48.7030   17.3200 Cl  0  0  0  0  0  0  0  0  0  0  0  0
   47.2960   50.5820   17.1160 S   0  0  0  0  0  0  0  0  0  0  0  0
  1  7  1  0  0  0  0
  2  1  1  0  0  0  0
  3  4  2  0  0  0  0
  4  5  1  0  0  0  0
  6 12  1  0  0  0  0
  6  5  2  0  0  0  0
  7  6  1  0  0  0  0
  8  7  2  0  0  0  0
  8  3  1  0  0  0  0
  9  3  1  0  0  0  0
 11 10  1  0  0  0  0
 11  9  1  0  0  0  0
 12 13  1  0  0  0  0
 14 13  1  0  0  0  0
 15  1  1  0  0  0  0
 15 16  2  0  0  0  0
 17 19  1  0  0  0  0
 17 15  1  0  0  0  0
 18 17  1  0  0  0  0
 19 20  1  0  0  0  0
 21 23  1  0  0  0  0
 21 19  1  0  0  0  0
 22 21  2  0  0  0  0
 23 24  2  0  0  0  0
 25 24  1  0  0  0  0
 26 25  2  0  0  0  0
 27 26  1  0  0  0  0
 28 26  1  0  0  0  0
 28 23  1  0  0  0  0
M  END
>  <MODEL>
5

>  <REMARK>
  Name = ZINC67193879
                            x       y       z     vdW  Elec       q    Type
                         _______ _______ _______ _____ _____    ______ ____

>  <TORSDO>
F 9

>  <minimizedAffinity>
-7.3734229612076083

$$$$
ZINC67193879
 OpenBabel10211213393D

 28 29  0  0  0  0  0  0  0  0999 V2000
   51.2040   50.4580   18.1830 N   0  0  0  0  0  0  0  0  0  0  0  0
   51.8140   50.1950   17.4770 H   0  0  0  0  0  0  0  0  0  0  0  0
   48.8560   53.2840   17.9370 C   0  0  0  0  0  0  0  0  0  0  0  0
   47.7940   52.6860   17.2730 C   0  0  0  0  0  0  0  0  0  0  0  0
   47.8630   51.3540   16.9120 C   0  0  0  0  0  0  0  0  0  0  0  0
   48.9930   50.6110   17.2130 C   0  0  0  0  0  0  0  0  0  0  0  0
   50.0610   51.2080   17.8780 C   0  0  0  0  0  0  0  0  0  0  0  0
   49.9920   52.5460   18.2340 C   0  0  0  0  0  0  0  0  0  0  0  0
   48.7860   54.5950   18.2900 O   0  0  0  0  0  0  0  0  0  0  0  0
   48.5710   56.3980   19.8850 C   0  0  0  0  0  0  0  0  0  0  0  0
   48.5510   54.8840   19.6700 C   0  0  0  0  0  0  0  0  0  0  0  0
   49.0590   49.2990   16.8570 O   0  0  0  0  0  0  0  0  0  0  0  0
   47.8650   48.5270   17.0000 C   0  0  0  0  0  0  0  0  0  0  0  0
   47.4280   48.5290   18.4660 C   0  0  0  0  0  0  0  0  0  0  0  0
   51.4580   50.1040   19.4590 C   0  0  0  0  0  0  0  0  0  0  0  0
   50.4630   48.9510   20.2410 S   0  0  0  0  0  0  0  0  0  0  0  0
   52.4940   50.6580   20.1180 N   0  0  0  0  0  0  0  0  0  0  0  0
   53.2070   50.0960   20.4600 H   0  0  0  0  0  0  0  0  0  0  0  0
   52.5430   52.0440   20.3100 N   0  0  0  0  0  0  0  0  0  0  0  0
   53.1280   52.5900   19.7620 H   0  0  0  0  0  0  0  0  0  0  0  0
   51.7760   52.6210   21.2570 C   0  0  0  0  0  0  0  0  0  0  0  0
   51.0430   51.9370   21.9470 O   0  0  0  0  0  0  0  0  0  0  0  0
   51.8270   54.0710   21.4580 C   0  0  0  0  0  0  0  0  0  0  0  0
   51.5540   54.8060   22.6030 C   0  0  0  0  0  0  0  0  0  0  0  0
   51.6900   56.1670   22.4850 C   0  0  0  0  0  0  0  0  0  0  0  0
   52.0730   56.6910   21.2920 C   0  0  0  0  0  0  0  0  0  0  0  0
   52.3140   58.3620   20.8890 Cl  0  0  0  0  0  0  0  0  0  0  0  0
   52.2640   55.3510   20.2970 S   0  0  0  0  0  0  0  0  0  0  0  0
  1 15  1  0  0  0  0
  2  1  1  0  0  0  0
  3  8  1  0  0  0  0
  3  9  1  0  0  0  0
  4  3  2  0  0  0  0
  5  6  2  0  0  0  0
  5  4  1  0  0  0  0
  6  7  1  0  0  0  0
  7  1  1  0  0  0  0
  7  8  2  0  0  0  0
  9 11  1  0  0  0  0
 11 10  1  0  0  0  0
 12 13  1  0  0  0  0
 12  6  1  0  0  0  0
 13 14  1  0  0  0  0
 15 17  1  0  0  0  0
 15 16  2  0  0  0  0
 17 19  1  0  0  0  0
 17 18  1  0  0  0  0
 19 21  1  0  0  0  0
 20 19  1  0  0  0  0
 21 23  1  0  0  0  0
 21 22  2  0  0  0  0
 23 24  2  0  0  0  0
 25 24  1  0  0  0  0
 26 25  2  0  0  0  0
 27 26  1  0  0  0  0
 28 26  1  0  0  0  0
 28 23  1  0  0  0  0
M  END
>  <MODEL>
6

>  <REMARK>
  Name = ZINC67193879
                            x       y       z     vdW  Elec       q    Type
                         _______ _______ _______ _____ _____    ______ ____

>  <TORSDO>
F 9

>  <minimizedAffinity>
-7.269053383597428

$$$$
ZINC67193879
 OpenBabel10211213393D

 28 29  0  0  0  0  0  0  0  0999 V2000
   51.8790   52.6700   18.8220 N   0  0  0  0  0  0  0  0  0  0  0  0
   52.5590   52.9530   18.1920 H   0  0  0  0  0  0  0  0  0  0  0  0
   49.9900   55.3400   20.5130 C   0  0  0  0  0  0  0  0  0  0  0  0
   48.7730   55.2610   19.8510 C   0  0  0  0  0  0  0  0  0  0  0  0
   48.5870   54.3260   18.8510 C   0  0  0  0  0  0  0  0  0  0  0  0
   49.6160   53.4630   18.5060 C   0  0  0  0  0  0  0  0  0  0  0  0
   50.8380   53.5400   19.1690 C   0  0  0  0  0  0  0  0  0  0  0  0
   51.0240   54.4840   20.1680 C   0  0  0  0  0  0  0  0  0  0  0  0
   50.1700   56.2610   21.4960 O   0  0  0  0  0  0  0  0  0  0  0  0
   48.8100   58.2400   21.7790 C   0  0  0  0  0  0  0  0  0  0  0  0
   50.0560   57.6370   21.1260 C   0  0  0  0  0  0  0  0  0  0  0  0
   49.4300   52.5430   17.5220 O   0  0  0  0  0  0  0  0  0  0  0  0
   48.3180   52.7420   16.6470 C   0  0  0  0  0  0  0  0  0  0  0  0
   47.2650   51.6620   16.9070 C   0  0  0  0  0  0  0  0  0  0  0  0
   51.9360   51.4380   19.3660 C   0  0  0  0  0  0  0  0  0  0  0  0
   52.1350   51.2560   21.0560 S   0  0  0  0  0  0  0  0  0  0  0  0
   51.8350   50.3490   18.5790 N   0  0  0  0  0  0  0  0  0  0  0  0
   52.6310   49.8530   18.3310 H   0  0  0  0  0  0  0  0  0  0  0  0
   50.5800   49.9320   18.1180 N   0  0  0  0  0  0  0  0  0  0  0  0
   50.2070   50.3170   17.3090 H   0  0  0  0  0  0  0  0  0  0  0  0
   49.8890   48.9940   18.7970 C   0  0  0  0  0  0  0  0  0  0  0  0
   50.3550   48.5110   19.8120 O   0  0  0  0  0  0  0  0  0  0  0  0
   48.5760   48.5590   18.3150 C   0  0  0  0  0  0  0  0  0  0  0  0
   47.3410   48.6490   18.9400 C   0  0  0  0  0  0  0  0  0  0  0  0
   46.2760   48.1490   18.2320 C   0  0  0  0  0  0  0  0  0  0  0  0
   46.4940   47.6150   17.0030 C   0  0  0  0  0  0  0  0  0  0  0  0
   45.3280   46.9240   15.9180 Cl  0  0  0  0  0  0  0  0  0  0  0  0
   48.1490   47.7810   16.7690 S   0  0  0  0  0  0  0  0  0  0  0  0
  1  7  1  0  0  0  0
  1 15  1  0  0  0  0
  2  1  1  0  0  0  0
  3  9  1  0  0  0  0
  4  3  2  0  0  0  0
  5  4  1  0  0  0  0
  6  5  2  0  0  0  0
  6  7  1  0  0  0  0
  7  8  2  0  0  0  0
  8  3  1  0  0  0  0
 11  9  1  0  0  0  0
 11 10  1  0  0  0  0
 12  6  1  0  0  0  0
 13 14  1  0  0  0  0
 13 12  1  0  0  0  0
 15 16  2  0  0  0  0
 17 15  1  0  0  0  0
 18 17  1  0  0  0  0
 19 17  1  0  0  0  0
 19 21  1  0  0  0  0
 20 19  1  0  0  0  0
 21 22  2  0  0  0  0
 23 21  1  0  0  0  0
 23 24  2  0  0  0  0
 25 24  1  0  0  0  0
 26 25  2  0  0  0  0
 27 26  1  0  0  0  0
 28 26  1  0  0  0  0
 28 23  1  0  0  0  0
M  END
>  <MODEL>
7

>  <REMARK>
  Name = ZINC67193879
                            x       y       z     vdW  Elec       q    Type
                         _______ _______ _______ _____ _____    ______ ____

>  <TORSDO>
F 9

>  <minimizedAffinity>
-7.2672642519138408

$$$$
ZINC67193879
 OpenBabel10211213393D

 28 29  0  0  0  0  0  0  0  0999 V2000
   48.7680   50.8720   16.4190 N   0  0  0  0  0  0  0  0  0  0  0  0
   49.2610   50.5640   15.6420 H   0  0  0  0  0  0  0  0  0  0  0  0
   45.8480   48.8360   17.3610 C   0  0  0  0  0  0  0  0  0  0  0  0
   46.3140   48.2280   18.5170 C   0  0  0  0  0  0  0  0  0  0  0  0
   47.5900   48.4940   18.9770 C   0  0  0  0  0  0  0  0  0  0  0  0
   48.4080   49.3720   18.2830 C   0  0  0  0  0  0  0  0  0  0  0  0
   47.9430   49.9840   17.1220 C   0  0  0  0  0  0  0  0  0  0  0  0
   46.6650   49.7100   16.6600 C   0  0  0  0  0  0  0  0  0  0  0  0
   44.5930   48.5710   16.9120 O   0  0  0  0  0  0  0  0  0  0  0  0
   44.2140   47.5000   14.7790 C   0  0  0  0  0  0  0  0  0  0  0  0
   44.3800   47.3040   16.2870 C   0  0  0  0  0  0  0  0  0  0  0  0
   49.6640   49.6340   18.7360 O   0  0  0  0  0  0  0  0  0  0  0  0
   50.0920   48.9320   19.9050 C   0  0  0  0  0  0  0  0  0  0  0  0
   50.8940   49.8770   20.8020 C   0  0  0  0  0  0  0  0  0  0  0  0
   48.8760   52.1530   16.8210 C   0  0  0  0  0  0  0  0  0  0  0  0
   47.7250   53.3120   16.3090 S   0  0  0  0  0  0  0  0  0  0  0  0
   49.8910   52.5230   17.6280 N   0  0  0  0  0  0  0  0  0  0  0  0
   50.7600   52.1020   17.5390 H   0  0  0  0  0  0  0  0  0  0  0  0
   49.6900   53.5150   18.5960 N   0  0  0  0  0  0  0  0  0  0  0  0
   48.8000   53.6790   18.9460 H   0  0  0  0  0  0  0  0  0  0  0  0
   50.7330   54.2430   19.0420 C   0  0  0  0  0  0  0  0  0  0  0  0
   51.8500   54.0390   18.6030 O   0  0  0  0  0  0  0  0  0  0  0  0
   50.5230   55.2810   20.0540 C   0  0  0  0  0  0  0  0  0  0  0  0
   51.2840   55.5740   21.1770 C   0  0  0  0  0  0  0  0  0  0  0  0
   50.8320   56.6170   21.9480 C   0  0  0  0  0  0  0  0  0  0  0  0
   49.7040   57.2730   21.5730 C   0  0  0  0  0  0  0  0  0  0  0  0
   48.9340   58.6100   22.3700 Cl  0  0  0  0  0  0  0  0  0  0  0  0
   49.2270   56.5000   20.1620 S   0  0  0  0  0  0  0  0  0  0  0  0
  1 15  1  0  0  0  0
  1  7  1  0  0  0  0
  2  1  1  0  0  0  0
  3  4  2  0  0  0  0
  4  5  1  0  0  0  0
  6 12  1  0  0  0  0
  6  5  2  0  0  0  0
  7  6  1  0  0  0  0
  8  7  2  0  0  0  0
  8  3  1  0  0  0  0
  9  3  1  0  0  0  0
 10 11  1  0  0  0  0
 11  9  1  0  0  0  0
 12 13  1  0  0  0  0
 13 14  1  0  0  0  0
 15 17  1  0  0  0  0
 16 15  2  0  0  0  0
 17 19  1  0  0  0  0
 18 17  1  0  0  0  0
 19 20  1  0  0  0  0
 19 21  1  0  0  0  0
 21 23  1  0  0  0  0
 22 21  2  0  0  0  0
 23 28  1  0  0  0  0
 23 24  2  0  0  0  0
 24 25  1  0  0  0  0
 26 25  2  0  0  0  0
 26 27  1  0  0  0  0
 28 26  1  0  0  0  0
M  END
>  <MODEL>
8

>  <REMARK>
  Name = ZINC67193879
                            x       y       z     vdW  Elec       q    Type
                         _______ _______ _______ _____ _____    ______ ____

>  <TORSDO>
F 9

>  <minimizedAffinity>
-7.1857252167930437

$$$$
ZINC67193879
 OpenBabel10211213393D

 28 29  0  0  0  0  0  0  0  0999 V2000
   51.0410   50.9500   18.0620 N   0  0  0  0  0  0  0  0  0  0  0  0
   51.7500   51.0770   17.4130 H   0  0  0  0  0  0  0  0  0  0  0  0
   47.5590   50.5520   16.9320 C   0  0  0  0  0  0  0  0  0  0  0  0
   47.0950   51.8540   17.0470 C   0  0  0  0  0  0  0  0  0  0  0  0
   47.9360   52.8540   17.4970 C   0  0  0  0  0  0  0  0  0  0  0  0
   49.2470   52.5580   17.8350 C   0  0  0  0  0  0  0  0  0  0  0  0
   49.7160   51.2520   17.7210 C   0  0  0  0  0  0  0  0  0  0  0  0
   48.8680   50.2490   17.2750 C   0  0  0  0  0  0  0  0  0  0  0  0
   46.7290   49.5710   16.4890 O   0  0  0  0  0  0  0  0  0  0  0  0
   44.7910   48.1360   16.6520 C   0  0  0  0  0  0  0  0  0  0  0  0
   45.5940   49.2640   17.3010 C   0  0  0  0  0  0  0  0  0  0  0  0
   50.0740   53.5430   18.2780 O   0  0  0  0  0  0  0  0  0  0  0  0
   49.4980   54.8370   18.4700 C   0  0  0  0  0  0  0  0  0  0  0  0
   48.8020   54.8880   19.8310 C   0  0  0  0  0  0  0  0  0  0  0  0
   51.3300   50.4860   19.2940 C   0  0  0  0  0  0  0  0  0  0  0  0
   50.4110   49.2060   19.9640 S   0  0  0  0  0  0  0  0  0  0  0  0
   52.3440   51.0270   19.9970 N   0  0  0  0  0  0  0  0  0  0  0  0
   53.0320   50.4570   20.3750 H   0  0  0  0  0  0  0  0  0  0  0  0
   52.4050   52.4140   20.1830 N   0  0  0  0  0  0  0  0  0  0  0  0
   52.8630   52.9710   19.5340 H   0  0  0  0  0  0  0  0  0  0  0  0
   51.8280   52.9760   21.2640 C   0  0  0  0  0  0  0  0  0  0  0  0
   51.2540   52.2780   22.0790 O   0  0  0  0  0  0  0  0  0  0  0  0
   51.8930   54.4260   21.4580 C   0  0  0  0  0  0  0  0  0  0  0  0
   51.4730   55.1830   22.5430 C   0  0  0  0  0  0  0  0  0  0  0  0
   51.6670   56.5380   22.4360 C   0  0  0  0  0  0  0  0  0  0  0  0
   52.2390   57.0350   21.3090 C   0  0  0  0  0  0  0  0  0  0  0  0
   52.5880   58.6940   20.9330 Cl  0  0  0  0  0  0  0  0  0  0  0  0
   52.5360   55.6790   20.3650 S   0  0  0  0  0  0  0  0  0  0  0  0
  1 15  1  0  0  0  0
  2  1  1  0  0  0  0
  3  4  2  0  0  0  0
  3  8  1  0  0  0  0
  4  5  1  0  0  0  0
  5  6  2  0  0  0  0
  6 12  1  0  0  0  0
  7  6  1  0  0  0  0
  7  1  1  0  0  0  0
  8  7  2  0  0  0  0
  9  3  1  0  0  0  0
  9 11  1  0  0  0  0
 10 11  1  0  0  0  0
 12 13  1  0  0  0  0
 13 14  1  0  0  0  0
 15 16  2  0  0  0  0
 15 17  1  0  0  0  0
 17 19  1  0  0  0  0
 17 18  1  0  0  0  0
 19 21  1  0  0  0  0
 20 19  1  0  0  0  0
 21 23  1  0  0  0  0
 21 22  2  0  0  0  0
 23 24  2  0  0  0  0
 25 24  1  0  0  0  0
 26 25  2  0  0  0  0
 27 26  1  0  0  0  0
 28 26  1  0  0  0  0
 28 23  1  0  0  0  0
M  END
>  <MODEL>
9

>  <REMARK>
  Name = ZINC67193879
                            x       y       z     vdW  Elec       q    Type
                         _______ _______ _______ _____ _____    ______ ____

>  <TORSDO>
F 9

>  <minimizedAffinity>
-6.8417992048561533

$$$$
ZINC15560389
 OpenBabel10211213413D

 33 34  0  0  1  0  0  0  0  0999 V2000
   49.7090   52.1690   18.3300 C   0  0  1  0  0  0  0  0  0  0  0  0
   47.9090   51.1580   16.9680 N   0  0  0  0  0  0  0  0  0  0  0  0
   47.7950   52.0170   16.5340 H   0  0  0  0  0  0  0  0  0  0  0  0
   48.8760   50.9910   17.8920 C   0  0  0  0  0  0  0  0  0  0  0  0
   49.0760   49.8960   18.3720 O   0  0  0  0  0  0  0  0  0  0  0  0
   45.4130   47.9740   15.9740 C   0  0  0  0  0  0  0  0  0  0  0  0
   45.1380   48.7550   17.0990 C   0  0  0  0  0  0  0  0  0  0  0  0
   45.9650   49.8060   17.4250 C   0  0  0  0  0  0  0  0  0  0  0  0
   47.0730   50.0910   16.6350 C   0  0  0  0  0  0  0  0  0  0  0  0
   47.3510   49.3160   15.5130 C   0  0  0  0  0  0  0  0  0  0  0  0
   46.5280   48.2630   15.1820 C   0  0  0  0  0  0  0  0  0  0  0  0
   44.1230   44.4640   15.3080 C   0  0  0  0  0  0  0  0  0  0  0  0
   45.0010   45.5830   15.6580 N   0  0  0  0  0  0  0  0  0  0  0  0
   45.9210   45.4160   15.9150 H   0  0  0  0  0  0  0  0  0  0  0  0
   44.5300   46.8450   15.6220 C   0  0  0  0  0  0  0  0  0  0  0  0
   43.3760   47.0550   15.2980 O   0  0  0  0  0  0  0  0  0  0  0  0
   51.0150   52.1160   17.6680 N   0  0  0  0  0  0  0  0  0  0  0  0
   51.0670   52.0480   16.7020 H   0  0  0  0  0  0  0  0  0  0  0  0
   52.4020   52.1740   18.5690 S   0  0  0  0  0  0  0  0  0  0  0  0
   53.4010   52.7540   17.7410 O   0  0  0  0  0  0  0  0  0  0  0  0
   52.5550   50.8920   19.1630 O   0  0  0  0  0  0  0  0  0  0  0  0
   52.1200   53.3080   19.8880 C   0  0  0  0  0  0  0  0  0  0  0  0
   52.3450   54.6590   19.6980 C   0  0  0  0  0  0  0  0  0  0  0  0
   52.1240   55.5490   20.7340 C   0  0  0  0  0  0  0  0  0  0  0  0
   52.4080   57.2450   20.4960 Cl  0  0  0  0  0  0  0  0  0  0  0  0
   51.6760   55.0880   21.9580 C   0  0  0  0  0  0  0  0  0  0  0  0
   51.4510   53.7380   22.1490 C   0  0  0  0  0  0  0  0  0  0  0  0
   51.6670   52.8480   21.1110 C   0  0  0  0  0  0  0  0  0  0  0  0
   51.3760   51.1530   21.3470 Cl  0  0  0  0  0  0  0  0  0  0  0  0
   48.9960   53.4670   17.9480 C   0  0  0  0  0  0  0  0  0  0  0  0
   48.7160   54.2860   19.2100 C   0  0  0  0  0  0  0  0  0  0  0  0
   48.8700   56.0530   18.8330 S   0  0  0  0  0  0  0  0  0  0  0  0
   48.5540   56.8710   20.4200 C   0  0  0  0  0  0  0  0  0  0  0  0
  1 17  1  6  0  0  0
  2  4  1  0  0  0  0
  3  2  1  0  0  0  0
  4  1  1  0  0  0  0
  4  5  2  0  0  0  0
  6  7  2  0  0  0  0
  7  8  1  0  0  0  0
  9  2  1  0  0  0  0
  9  8  2  0  0  0  0
 10  9  1  0  0  0  0
 11 10  2  0  0  0  0
 11  6  1  0  0  0  0
 12 13  1  0  0  0  0
 13 14  1  0  0  0  0
 15 13  1  0  0  0  0
 15  6  1  0  0  0  0
 16 15  2  0  0  0  0
 17 19  1  0  0  0  0
 18 17  1  0  0  0  0
 19 21  2  0  0  0  0
 19 22  1  0  0  0  0
 20 19  2  0  0  0  0
 22 28  1  0  0  0  0
 23 22  2  0  0  0  0
 23 24  1  0  0  0  0
 24 26  2  0  0  0  0
 25 24  1  0  0  0  0
 26 27  1  0  0  0  0
 28 29  1  0  0  0  0
 28 27  2  0  0  0  0
 30  1  1  0  0  0  0
 30 31  1  0  0  0  0
 32 31  1  0  0  0  0
 32 33  1  0  0  0  0
M  END
>  <MODEL>
1

>  <REMARK>
  Name = ZINC15560389
                            x       y       z     vdW  Elec       q    Type
                         _______ _______ _______ _____ _____    ______ ____

>  <TORSDO>
F 9

>  <minimizedAffinity>
-9.0181010948643525

$$$$
ZINC15560389
 OpenBabel10211213413D

 33 34  0  0  1  0  0  0  0  0999 V2000
   49.4750   52.1180   17.8980 C   0  0  1  0  0  0  0  0  0  0  0  0
   48.2050   50.0700   17.3460 N   0  0  0  0  0  0  0  0  0  0  0  0
   48.8340   49.5680   17.8870 H   0  0  0  0  0  0  0  0  0  0  0  0
   48.3130   51.4100   17.2510 C   0  0  0  0  0  0  0  0  0  0  0  0
   47.4760   52.0450   16.6460 O   0  0  0  0  0  0  0  0  0  0  0  0
   45.1610   48.0800   15.3140 C   0  0  0  0  0  0  0  0  0  0  0  0
   46.3710   48.3520   14.6710 C   0  0  0  0  0  0  0  0  0  0  0  0
   47.3740   49.0100   15.3450 C   0  0  0  0  0  0  0  0  0  0  0  0
   47.1850   49.4030   16.6660 C   0  0  0  0  0  0  0  0  0  0  0  0
   45.9810   49.1340   17.3100 C   0  0  0  0  0  0  0  0  0  0  0  0
   44.9740   48.4770   16.6410 C   0  0  0  0  0  0  0  0  0  0  0  0
   42.1620   45.8760   14.5540 C   0  0  0  0  0  0  0  0  0  0  0  0
   43.2330   46.5740   15.2680 N   0  0  0  0  0  0  0  0  0  0  0  0
   43.3320   46.4590   16.2260 H   0  0  0  0  0  0  0  0  0  0  0  0
   44.0810   47.3760   14.5950 C   0  0  0  0  0  0  0  0  0  0  0  0
   43.9570   47.5190   13.3940 O   0  0  0  0  0  0  0  0  0  0  0  0
   48.9840   53.2740   18.6520 N   0  0  0  0  0  0  0  0  0  0  0  0
   48.0320   53.4510   18.7030 H   0  0  0  0  0  0  0  0  0  0  0  0
   50.0550   54.2780   19.4190 S   0  0  0  0  0  0  0  0  0  0  0  0
   51.1420   54.4720   18.5240 O   0  0  0  0  0  0  0  0  0  0  0  0
   50.2310   53.7580   20.7290 O   0  0  0  0  0  0  0  0  0  0  0  0
   49.2650   55.8420   19.5990 C   0  0  0  0  0  0  0  0  0  0  0  0
   49.3560   56.5280   20.7960 C   0  0  0  0  0  0  0  0  0  0  0  0
   48.7350   57.7560   20.9380 C   0  0  0  0  0  0  0  0  0  0  0  0
   48.8490   58.6180   22.4410 Cl  0  0  0  0  0  0  0  0  0  0  0  0
   48.0240   58.2980   19.8830 C   0  0  0  0  0  0  0  0  0  0  0  0
   47.9320   57.6120   18.6870 C   0  0  0  0  0  0  0  0  0  0  0  0
   48.5580   56.3870   18.5420 C   0  0  0  0  0  0  0  0  0  0  0  0
   48.4510   55.5290   17.0370 Cl  0  0  0  0  0  0  0  0  0  0  0  0
   50.1940   51.1580   18.8470 C   0  0  0  0  0  0  0  0  0  0  0  0
   51.6190   50.9160   18.3470 C   0  0  0  0  0  0  0  0  0  0  0  0
   52.5810   50.0800   19.6380 S   0  0  0  0  0  0  0  0  0  0  0  0
   52.3050   51.0910   21.1170 C   0  0  0  0  0  0  0  0  0  0  0  0
  1  4  1  1  0  0  0
  1 17  1  0  0  0  0
  1 30  1  0  0  0  0
  2  3  1  0  0  0  0
  4  2  1  0  0  0  0
  5  4  2  0  0  0  0
  6 11  1  0  0  0  0
  7  6  2  0  0  0  0
  7  8  1  0  0  0  0
  8  9  2  0  0  0  0
  9 10  1  0  0  0  0
  9  2  1  0  0  0  0
 11 10  2  0  0  0  0
 12 13  1  0  0  0  0
 13 14  1  0  0  0  0
 15 13  1  0  0  0  0
 15  6  1  0  0  0  0
 16 15  2  0  0  0  0
 17 18  1  0  0  0  0
 17 19  1  0  0  0  0
 19 22  1  0  0  0  0
 19 21  2  0  0  0  0
 20 19  2  0  0  0  0
 22 23  2  0  0  0  0
 23 24  1  0  0  0  0
 24 25  1  0  0  0  0
 26 24  2  0  0  0  0
 27 26  1  0  0  0  0
 28 27  2  0  0  0  0
 28 22  1  0  0  0  0
 29 28  1  0  0  0  0
 31 30  1  0  0  0  0
 31 32  1  0  0  0  0
 32 33  1  0  0  0  0
M  END
>  <MODEL>
2

>  <REMARK>
  Name = ZINC15560389
                            x       y       z     vdW  Elec       q    Type
                         _______ _______ _______ _____ _____    ______ ____

>  <TORSDO>
F 9

>  <minimizedAffinity>
-8.2383079683411271

$$$$
ZINC15560389
 OpenBabel10211213413D

 33 34  0  0  1  0  0  0  0  0999 V2000
   51.1750   54.4350   20.4640 C   0  0  1  0  0  0  0  0  0  0  0  0
   49.1840   55.2160   19.2230 N   0  0  0  0  0  0  0  0  0  0  0  0
   48.6330   54.8390   19.9270 H   0  0  0  0  0  0  0  0  0  0  0  0
   50.5280   55.1690   19.3190 C   0  0  0  0  0  0  0  0  0  0  0  0
   51.2150   55.7160   18.4830 O   0  0  0  0  0  0  0  0  0  0  0  0
   47.3950   56.9870   15.9040 C   0  0  0  0  0  0  0  0  0  0  0  0
   47.7870   55.6470   15.8570 C   0  0  0  0  0  0  0  0  0  0  0  0
   48.3780   55.0650   16.9550 C   0  0  0  0  0  0  0  0  0  0  0  0
   48.5850   55.8100   18.1120 C   0  0  0  0  0  0  0  0  0  0  0  0
   48.1960   57.1450   18.1630 C   0  0  0  0  0  0  0  0  0  0  0  0
   47.6040   57.7330   17.0680 C   0  0  0  0  0  0  0  0  0  0  0  0
   46.1610   57.6170   12.3670 C   0  0  0  0  0  0  0  0  0  0  0  0
   46.7900   56.9930   13.5340 N   0  0  0  0  0  0  0  0  0  0  0  0
   47.2260   56.1320   13.4460 H   0  0  0  0  0  0  0  0  0  0  0  0
   46.7620   57.6160   14.7280 C   0  0  0  0  0  0  0  0  0  0  0  0
   46.2150   58.6960   14.8380 O   0  0  0  0  0  0  0  0  0  0  0  0
   51.8780   53.2560   19.9530 N   0  0  0  0  0  0  0  0  0  0  0  0
   52.5270   53.3500   19.2390 H   0  0  0  0  0  0  0  0  0  0  0  0
   51.5660   51.7630   20.5970 S   0  0  0  0  0  0  0  0  0  0  0  0
   50.8610   51.9830   21.8110 O   0  0  0  0  0  0  0  0  0  0  0  0
   52.7860   51.0360   20.5460 O   0  0  0  0  0  0  0  0  0  0  0  0
   50.4490   50.9480   19.5060 C   0  0  0  0  0  0  0  0  0  0  0  0
   49.9920   51.5970   18.3730 C   0  0  0  0  0  0  0  0  0  0  0  0
   49.1140   50.9570   17.5170 C   0  0  0  0  0  0  0  0  0  0  0  0
   48.5410   51.7710   16.0940 Cl  0  0  0  0  0  0  0  0  0  0  0  0
   48.6940   49.6680   17.7930 C   0  0  0  0  0  0  0  0  0  0  0  0
   49.1490   49.0200   18.9250 C   0  0  0  0  0  0  0  0  0  0  0  0
   50.0330   49.6580   19.7790 C   0  0  0  0  0  0  0  0  0  0  0  0
   50.6120   48.8410   21.1960 Cl  0  0  0  0  0  0  0  0  0  0  0  0
   52.1730   55.3610   21.1640 C   0  0  0  0  0  0  0  0  0  0  0  0
   51.4200   56.5170   21.8250 C   0  0  0  0  0  0  0  0  0  0  0  0
   52.2630   58.0790   21.4540 S   0  0  0  0  0  0  0  0  0  0  0  0
   53.8670   57.5650   20.7810 C   0  0  0  0  0  0  0  0  0  0  0  0
  1  4  1  6  0  0  0
  1 30  1  0  0  0  0
  2  4  1  0  0  0  0
  2  3  1  0  0  0  0
  5  4  2  0  0  0  0
  6 11  1  0  0  0  0
  7  6  2  0  0  0  0
  7  8  1  0  0  0  0
  8  9  2  0  0  0  0
  9 10  1  0  0  0  0
  9  2  1  0  0  0  0
 11 10  2  0  0  0  0
 12 13  1  0  0  0  0
 13 15  1  0  0  0  0
 14 13  1  0  0  0  0
 15 16  2  0  0  0  0
 15  6  1  0  0  0  0
 17  1  1  0  0  0  0
 17 19  1  0  0  0  0
 18 17  1  0  0  0  0
 19 20  2  0  0  0  0
 21 19  2  0  0  0  0
 22 28  1  0  0  0  0
 22 19  1  0  0  0  0
 23 22  2  0  0  0  0
 24 26  2  0  0  0  0
 24 23  1  0  0  0  0
 25 24  1  0  0  0  0
 26 27  1  0  0  0  0
 27 28  2  0  0  0  0
 28 29  1  0  0  0  0
 30 31  1  0  0  0  0
 32 31  1  0  0  0  0
 33 32  1  0  0  0  0
M  END
>  <MODEL>
3

>  <REMARK>
  Name = ZINC15560389
                            x       y       z     vdW  Elec       q    Type
                         _______ _______ _______ _____ _____    ______ ____

>  <TORSDO>
F 9

>  <minimizedAffinity>
-8.2376094735798571

$$$$
ZINC15560389
 OpenBabel10211213413D

 33 34  0  0  1  0  0  0  0  0999 V2000
   50.9870   52.8000   18.3250 C   0  0  1  0  0  0  0  0  0  0  0  0
   49.7410   50.7810   17.6280 N   0  0  0  0  0  0  0  0  0  0  0  0
   50.5590   50.2730   17.7380 H   0  0  0  0  0  0  0  0  0  0  0  0
   49.7170   52.0950   17.9250 C   0  0  0  0  0  0  0  0  0  0  0  0
   48.6740   52.7110   17.8690 O   0  0  0  0  0  0  0  0  0  0  0  0
   46.2950   48.8990   16.2380 C   0  0  0  0  0  0  0  0  0  0  0  0
   47.2350   49.3950   15.3320 C   0  0  0  0  0  0  0  0  0  0  0  0
   48.3730   50.0170   15.7950 C   0  0  0  0  0  0  0  0  0  0  0  0
   48.5870   50.1500   17.1630 C   0  0  0  0  0  0  0  0  0  0  0  0
   47.6520   49.6570   18.0680 C   0  0  0  0  0  0  0  0  0  0  0  0
   46.5120   49.0340   17.6120 C   0  0  0  0  0  0  0  0  0  0  0  0
   43.6690   47.4030   13.9350 C   0  0  0  0  0  0  0  0  0  0  0  0
   44.8820   48.0650   14.4230 N   0  0  0  0  0  0  0  0  0  0  0  0
   45.5470   48.3820   13.7930 H   0  0  0  0  0  0  0  0  0  0  0  0
   45.0730   48.2320   15.7460 C   0  0  0  0  0  0  0  0  0  0  0  0
   44.2380   47.8340   16.5360 O   0  0  0  0  0  0  0  0  0  0  0  0
   50.8140   53.4040   19.6480 N   0  0  0  0  0  0  0  0  0  0  0  0
   50.2430   52.9780   20.3050 H   0  0  0  0  0  0  0  0  0  0  0  0
   51.5970   54.8140   20.0220 S   0  0  0  0  0  0  0  0  0  0  0  0
   52.3330   55.1900   18.8660 O   0  0  0  0  0  0  0  0  0  0  0  0
   52.2160   54.6120   21.2860 O   0  0  0  0  0  0  0  0  0  0  0  0
   50.3630   56.0480   20.2580 C   0  0  0  0  0  0  0  0  0  0  0  0
   49.5250   56.3950   19.2140 C   0  0  0  0  0  0  0  0  0  0  0  0
   48.5560   57.3660   19.3990 C   0  0  0  0  0  0  0  0  0  0  0  0
   47.5020   57.8010   18.0890 Cl  0  0  0  0  0  0  0  0  0  0  0  0
   48.4250   57.9880   20.6280 C   0  0  0  0  0  0  0  0  0  0  0  0
   49.2630   57.6420   21.6700 C   0  0  0  0  0  0  0  0  0  0  0  0
   50.2290   56.6670   21.4880 C   0  0  0  0  0  0  0  0  0  0  0  0
   51.2760   56.2270   22.7990 Cl  0  0  0  0  0  0  0  0  0  0  0  0
   52.1360   51.7910   18.3710 C   0  0  0  0  0  0  0  0  0  0  0  0
   52.3820   51.3630   19.8200 C   0  0  0  0  0  0  0  0  0  0  0  0
   52.3870   49.5530   19.9250 S   0  0  0  0  0  0  0  0  0  0  0  0
   50.7580   49.1480   20.6110 C   0  0  0  0  0  0  0  0  0  0  0  0
  1  4  1  1  0  0  0
  1 30  1  0  0  0  0
  1 17  1  0  0  0  0
  2  3  1  0  0  0  0
  2  4  1  0  0  0  0
  5  4  2  0  0  0  0
  6 11  2  0  0  0  0
  7  8  2  0  0  0  0
  7  6  1  0  0  0  0
  8  9  1  0  0  0  0
  9  2  1  0  0  0  0
  9 10  2  0  0  0  0
 11 10  1  0  0  0  0
 12 13  1  0  0  0  0
 13 15  1  0  0  0  0
 14 13  1  0  0  0  0
 15  6  1  0  0  0  0
 15 16  2  0  0  0  0
 17 19  1  0  0  0  0
 17 18  1  0  0  0  0
 19 22  1  0  0  0  0
 19 21  2  0  0  0  0
 20 19  2  0  0  0  0
 22 28  2  0  0  0  0
 23 24  2  0  0  0  0
 23 22  1  0  0  0  0
 24 26  1  0  0  0  0
 25 24  1  0  0  0  0
 26 27  2  0  0  0  0
 28 27  1  0  0  0  0
 28 29  1  0  0  0  0
 30 31  1  0  0  0  0
 31 32  1  0  0  0  0
 32 33  1  0  0  0  0
M  END
>  <MODEL>
4

>  <REMARK>
  Name = ZINC15560389
                            x       y       z     vdW  Elec       q    Type
                         _______ _______ _______ _____ _____    ______ ____

>  <TORSDO>
F 9

>  <minimizedAffinity>
-8.1958268325294465

$$$$
ZINC15560389
 OpenBabel10211213413D

 33 34  0  0  1  0  0  0  0  0999 V2000
   51.3170   53.0030   18.4160 C   0  0  1  0  0  0  0  0  0  0  0  0
   50.5690   51.0600   17.0820 N   0  0  0  0  0  0  0  0  0  0  0  0
   51.4810   50.9590   16.7710 H   0  0  0  0  0  0  0  0  0  0  0  0
   50.2630   52.0190   17.9790 C   0  0  0  0  0  0  0  0  0  0  0  0
   49.1420   52.0900   18.4330 O   0  0  0  0  0  0  0  0  0  0  0  0
   47.5900   48.5240   15.6520 C   0  0  0  0  0  0  0  0  0  0  0  0
   48.1630   48.2940   16.9060 C   0  0  0  0  0  0  0  0  0  0  0  0
   49.1470   49.1340   17.3750 C   0  0  0  0  0  0  0  0  0  0  0  0
   49.5710   50.2110   16.6030 C   0  0  0  0  0  0  0  0  0  0  0  0
   49.0030   50.4430   15.3540 C   0  0  0  0  0  0  0  0  0  0  0  0
   48.0180   49.6060   14.8790 C   0  0  0  0  0  0  0  0  0  0  0  0
   45.0910   45.6760   15.3750 C   0  0  0  0  0  0  0  0  0  0  0  0
   46.1390   46.5670   15.8790 N   0  0  0  0  0  0  0  0  0  0  0  0
   46.5470   46.3950   16.7420 H   0  0  0  0  0  0  0  0  0  0  0  0
   46.5350   47.6250   15.1450 C   0  0  0  0  0  0  0  0  0  0  0  0
   46.0220   47.8400   14.0630 O   0  0  0  0  0  0  0  0  0  0  0  0
   50.8210   53.7740   19.5590 N   0  0  0  0  0  0  0  0  0  0  0  0
   50.1510   53.3930   20.1470 H   0  0  0  0  0  0  0  0  0  0  0  0
   51.4080   55.2940   19.8500 S   0  0  0  0  0  0  0  0  0  0  0  0
   51.9370   55.7680   18.6180 O   0  0  0  0  0  0  0  0  0  0  0  0
   52.1920   55.2090   21.0320 O   0  0  0  0  0  0  0  0  0  0  0  0
   50.0290   56.3200   20.2340 C   0  0  0  0  0  0  0  0  0  0  0  0
   50.0460   57.1040   21.3730 C   0  0  0  0  0  0  0  0  0  0  0  0
   48.9620   57.9090   21.6750 C   0  0  0  0  0  0  0  0  0  0  0  0
   48.9840   58.8930   23.1050 Cl  0  0  0  0  0  0  0  0  0  0  0  0
   47.8620   57.9310   20.8370 C   0  0  0  0  0  0  0  0  0  0  0  0
   47.8440   57.1480   19.6990 C   0  0  0  0  0  0  0  0  0  0  0  0
   48.9310   56.3470   19.3930 C   0  0  0  0  0  0  0  0  0  0  0  0
   48.9120   55.3690   17.9600 Cl  0  0  0  0  0  0  0  0  0  0  0  0
   52.5840   52.2480   18.8210 C   0  0  0  0  0  0  0  0  0  0  0  0
   52.3520   51.5420   20.1580 C   0  0  0  0  0  0  0  0  0  0  0  0
   52.5500   49.7520   19.9400 S   0  0  0  0  0  0  0  0  0  0  0  0
   50.9500   49.0680   20.4500 C   0  0  0  0  0  0  0  0  0  0  0  0
  1  4  1  1  0  0  0
  1 30  1  0  0  0  0
  1 17  1  0  0  0  0
  2  4  1  0  0  0  0
  3  2  1  0  0  0  0
  4  5  2  0  0  0  0
  6  7  2  0  0  0  0
  7  8  1  0  0  0  0
  9  2  1  0  0  0  0
  9  8  2  0  0  0  0
 10  9  1  0  0  0  0
 11 10  2  0  0  0  0
 11  6  1  0  0  0  0
 12 13  1  0  0  0  0
 13 14  1  0  0  0  0
 15  6  1  0  0  0  0
 15 13  1  0  0  0  0
 16 15  2  0  0  0  0
 17 19  1  0  0  0  0
 17 18  1  0  0  0  0
 19 22  1  0  0  0  0
 19 21  2  0  0  0  0
 20 19  2  0  0  0  0
 22 23  2  0  0  0  0
 23 24  1  0  0  0  0
 24 25  1  0  0  0  0
 26 24  2  0  0  0  0
 27 26  1  0  0  0  0
 28 27  2  0  0  0  0
 28 22  1  0  0  0  0
 29 28  1  0  0  0  0
 30 31  1  0  0  0  0
 32 31  1  0  0  0  0
 32 33  1  0  0  0  0
M  END
>  <MODEL>
5

>  <REMARK>
  Name = ZINC15560389
                            x       y       z     vdW  Elec       q    Type
                         _______ _______ _______ _____ _____    ______ ____

>  <TORSDO>
F 9

>  <minimizedAffinity>
-8.1656500832168071

$$$$
ZINC15560389
 OpenBabel10211213413D

 33 34  0  0  1  0  0  0  0  0999 V2000
   49.7730   52.4140   17.9160 C   0  0  1  0  0  0  0  0  0  0  0  0
   49.6730   54.8850   17.9430 N   0  0  0  0  0  0  0  0  0  0  0  0
   50.6320   54.8960   17.8020 H   0  0  0  0  0  0  0  0  0  0  0  0
   49.0100   53.7110   17.9820 C   0  0  0  0  0  0  0  0  0  0  0  0
   47.8010   53.7000   18.0730 O   0  0  0  0  0  0  0  0  0  0  0  0
   47.5970   58.4640   18.4230 C   0  0  0  0  0  0  0  0  0  0  0  0
   47.6360   57.8390   17.1740 C   0  0  0  0  0  0  0  0  0  0  0  0
   48.3240   56.6570   17.0190 C   0  0  0  0  0  0  0  0  0  0  0  0
   48.9770   56.0830   18.1040 C   0  0  0  0  0  0  0  0  0  0  0  0
   48.9400   56.7020   19.3500 C   0  0  0  0  0  0  0  0  0  0  0  0
   48.2550   57.8850   19.5120 C   0  0  0  0  0  0  0  0  0  0  0  0
   45.4130   61.4970   17.7430 C   0  0  0  0  0  0  0  0  0  0  0  0
   46.1420   60.2380   17.5730 N   0  0  0  0  0  0  0  0  0  0  0  0
   46.1070   59.7690   16.7250 H   0  0  0  0  0  0  0  0  0  0  0  0
   46.8620   59.7330   18.5940 C   0  0  0  0  0  0  0  0  0  0  0  0
   46.9060   60.3220   19.6570 O   0  0  0  0  0  0  0  0  0  0  0  0
   50.4680   52.1900   19.1860 N   0  0  0  0  0  0  0  0  0  0  0  0
   50.0160   51.7320   19.9120 H   0  0  0  0  0  0  0  0  0  0  0  0
   52.0240   52.7180   19.3820 S   0  0  0  0  0  0  0  0  0  0  0  0
   52.4370   53.2450   18.1280 O   0  0  0  0  0  0  0  0  0  0  0  0
   52.7290   51.6720   20.0370 O   0  0  0  0  0  0  0  0  0  0  0  0
   51.9780   54.0730   20.5070 C   0  0  0  0  0  0  0  0  0  0  0  0
   52.4730   55.3060   20.1240 C   0  0  0  0  0  0  0  0  0  0  0  0
   52.4370   56.3700   21.0080 C   0  0  0  0  0  0  0  0  0  0  0  0
   53.0600   57.9180   20.5280 Cl  0  0  0  0  0  0  0  0  0  0  0  0
   51.9040   56.2010   22.2730 C   0  0  0  0  0  0  0  0  0  0  0  0
   51.4090   54.9690   22.6560 C   0  0  0  0  0  0  0  0  0  0  0  0
   51.4390   53.9060   21.7700 C   0  0  0  0  0  0  0  0  0  0  0  0
   50.8100   52.3610   22.2470 Cl  0  0  0  0  0  0  0  0  0  0  0  0
   48.8000   51.2620   17.6570 C   0  0  0  0  0  0  0  0  0  0  0  0
   49.2580   50.0230   18.4290 C   0  0  0  0  0  0  0  0  0  0  0  0
   47.8830   48.8480   18.5610 S   0  0  0  0  0  0  0  0  0  0  0  0
   46.6030   49.5470   17.4830 C   0  0  0  0  0  0  0  0  0  0  0  0
  1 30  1  1  0  0  0
  1  4  1  0  0  0  0
  1 17  1  0  0  0  0
  2  4  1  0  0  0  0
  2  9  1  0  0  0  0
  3  2  1  0  0  0  0
  4  5  2  0  0  0  0
  6 15  1  0  0  0  0
  6 11  2  0  0  0  0
  7  6  1  0  0  0  0
  8  7  2  0  0  0  0
  8  9  1  0  0  0  0
  9 10  2  0  0  0  0
 10 11  1  0  0  0  0
 13 12  1  0  0  0  0
 13 15  1  0  0  0  0
 14 13  1  0  0  0  0
 15 16  2  0  0  0  0
 17 19  1  0  0  0  0
 17 18  1  0  0  0  0
 19 21  2  0  0  0  0
 19 22  1  0  0  0  0
 20 19  2  0  0  0  0
 22 28  1  0  0  0  0
 23 22  2  0  0  0  0
 23 24  1  0  0  0  0
 24 26  2  0  0  0  0
 25 24  1  0  0  0  0
 26 27  1  0  0  0  0
 28 29  1  0  0  0  0
 28 27  2  0  0  0  0
 30 31  1  0  0  0  0
 31 32  1  0  0  0  0
 33 32  1  0  0  0  0
M  END
>  <MODEL>
6

>  <REMARK>
  Name = ZINC15560389
                            x       y       z     vdW  Elec       q    Type
                         _______ _______ _______ _____ _____    ______ ____

>  <TORSDO>
F 9

>  <minimizedAffinity>
-8.1417480791989441

$$$$
ZINC15560389
 OpenBabel10211213413D

 33 34  0  0  1  0  0  0  0  0999 V2000
   50.4540   53.3090   19.8800 C   0  0  1  0  0  0  0  0  0  0  0  0
   48.8010   55.1440   20.0100 N   0  0  0  0  0  0  0  0  0  0  0  0
   48.2520   54.5710   20.5670 H   0  0  0  0  0  0  0  0  0  0  0  0
   50.0060   54.7170   19.5830 C   0  0  0  0  0  0  0  0  0  0  0  0
   50.7290   55.4650   18.9600 O   0  0  0  0  0  0  0  0  0  0  0  0
   47.4360   58.9320   18.9420 C   0  0  0  0  0  0  0  0  0  0  0  0
   47.6170   58.6070   20.2880 C   0  0  0  0  0  0  0  0  0  0  0  0
   48.0680   57.3540   20.6380 C   0  0  0  0  0  0  0  0  0  0  0  0
   48.3440   56.4130   19.6520 C   0  0  0  0  0  0  0  0  0  0  0  0
   48.1650   56.7320   18.3100 C   0  0  0  0  0  0  0  0  0  0  0  0
   47.7150   57.9830   17.9540 C   0  0  0  0  0  0  0  0  0  0  0  0
   46.5260   62.6170   19.0720 C   0  0  0  0  0  0  0  0  0  0  0  0
   47.0060   61.2860   19.4490 N   0  0  0  0  0  0  0  0  0  0  0  0
   47.3630   61.1340   20.3380 H   0  0  0  0  0  0  0  0  0  0  0  0
   46.9520   60.2730   18.5620 C   0  0  0  0  0  0  0  0  0  0  0  0
   46.5030   60.4650   17.4480 O   0  0  0  0  0  0  0  0  0  0  0  0
   51.7780   53.0850   19.2940 N   0  0  0  0  0  0  0  0  0  0  0  0
   52.3920   53.8270   19.1820 H   0  0  0  0  0  0  0  0  0  0  0  0
   52.2280   51.5620   18.8240 S   0  0  0  0  0  0  0  0  0  0  0  0
   52.7840   50.9300   19.9690 O   0  0  0  0  0  0  0  0  0  0  0  0
   52.9510   51.7090   17.6090 O   0  0  0  0  0  0  0  0  0  0  0  0
   50.7540   50.6830   18.4290 C   0  0  0  0  0  0  0  0  0  0  0  0
   50.1820   50.8180   17.1770 C   0  0  0  0  0  0  0  0  0  0  0  0
   49.0230   50.1280   16.8680 C   0  0  0  0  0  0  0  0  0  0  0  0
   48.3050   50.2980   15.2960 Cl  0  0  0  0  0  0  0  0  0  0  0  0
   48.4380   49.3010   17.8100 C   0  0  0  0  0  0  0  0  0  0  0  0
   49.0090   49.1660   19.0610 C   0  0  0  0  0  0  0  0  0  0  0  0
   50.1710   49.8510   19.3690 C   0  0  0  0  0  0  0  0  0  0  0  0
   50.8930   49.6750   20.9370 Cl  0  0  0  0  0  0  0  0  0  0  0  0
   50.5260   53.1050   21.3940 C   0  0  0  0  0  0  0  0  0  0  0  0
   51.8450   53.6710   21.9240 C   0  0  0  0  0  0  0  0  0  0  0  0
   51.5180   55.1740   22.8850 S   0  0  0  0  0  0  0  0  0  0  0  0
   52.2750   56.4970   21.9030 C   0  0  0  0  0  0  0  0  0  0  0  0
  1 17  1  1  0  0  0
  1 30  1  0  0  0  0
  2  3  1  0  0  0  0
  4  1  1  0  0  0  0
  4  2  1  0  0  0  0
  5  4  2  0  0  0  0
  6  7  2  0  0  0  0
  7  8  1  0  0  0  0
  9  2  1  0  0  0  0
  9  8  2  0  0  0  0
 10  9  1  0  0  0  0
 11 10  2  0  0  0  0
 11  6  1  0  0  0  0
 12 13  1  0  0  0  0
 13 14  1  0  0  0  0
 15  6  1  0  0  0  0
 15 13  1  0  0  0  0
 16 15  2  0  0  0  0
 18 17  1  0  0  0  0
 19 17  1  0  0  0  0
 19 20  2  0  0  0  0
 21 19  2  0  0  0  0
 22 19  1  0  0  0  0
 22 28  2  0  0  0  0
 23 22  1  0  0  0  0
 24 23  2  0  0  0  0
 24 26  1  0  0  0  0
 25 24  1  0  0  0  0
 26 27  2  0  0  0  0
 27 28  1  0  0  0  0
 28 29  1  0  0  0  0
 30 31  1  0  0  0  0
 31 32  1  0  0  0  0
 33 32  1  0  0  0  0
M  END
>  <MODEL>
7

>  <REMARK>
  Name = ZINC15560389
                            x       y       z     vdW  Elec       q    Type
                         _______ _______ _______ _____ _____    ______ ____

>  <TORSDO>
F 9

>  <minimizedAffinity>
-8.1350369243787011

$$$$
ZINC15560389
 OpenBabel10211213413D

 33 34  0  0  1  0  0  0  0  0999 V2000
   50.4670   52.7520   18.1610 C   0  0  1  0  0  0  0  0  0  0  0  0
   48.7200   51.6790   16.7780 N   0  0  0  0  0  0  0  0  0  0  0  0
   48.7210   52.4690   16.2160 H   0  0  0  0  0  0  0  0  0  0  0  0
   49.5800   51.5850   17.8120 C   0  0  0  0  0  0  0  0  0  0  0  0
   49.6390   50.5630   18.4610 O   0  0  0  0  0  0  0  0  0  0  0  0
   46.0610   48.5710   15.9930 C   0  0  0  0  0  0  0  0  0  0  0  0
   47.1870   48.7490   15.1860 C   0  0  0  0  0  0  0  0  0  0  0  0
   48.0630   49.7780   15.4480 C   0  0  0  0  0  0  0  0  0  0  0  0
   47.8290   50.6380   16.5160 C   0  0  0  0  0  0  0  0  0  0  0  0
   46.7080   50.4640   17.3220 C   0  0  0  0  0  0  0  0  0  0  0  0
   45.8280   49.4370   17.0650 C   0  0  0  0  0  0  0  0  0  0  0  0
   44.6470   45.1550   15.1170 C   0  0  0  0  0  0  0  0  0  0  0  0
   45.5840   46.2480   15.3920 N   0  0  0  0  0  0  0  0  0  0  0  0
   46.5390   46.0910   15.3420 H   0  0  0  0  0  0  0  0  0  0  0  0
   45.1170   47.4700   15.7150 C   0  0  0  0  0  0  0  0  0  0  0  0
   43.9190   47.6660   15.7780 O   0  0  0  0  0  0  0  0  0  0  0  0
   49.9290   53.4390   19.3380 N   0  0  0  0  0  0  0  0  0  0  0  0
   50.0690   53.0680   20.2220 H   0  0  0  0  0  0  0  0  0  0  0  0
   49.0840   54.8510   19.1570 S   0  0  0  0  0  0  0  0  0  0  0  0
   47.8610   54.6860   19.8610 O   0  0  0  0  0  0  0  0  0  0  0  0
   49.1280   55.1770   17.7740 O   0  0  0  0  0  0  0  0  0  0  0  0
   49.9850   56.1090   19.9990 C   0  0  0  0  0  0  0  0  0  0  0  0
   51.3670   56.0860   20.0010 C   0  0  0  0  0  0  0  0  0  0  0  0
   52.0740   57.0740   20.6630 C   0  0  0  0  0  0  0  0  0  0  0  0
   53.8110   57.0450   20.6660 Cl  0  0  0  0  0  0  0  0  0  0  0  0
   51.3990   58.0850   21.3220 C   0  0  0  0  0  0  0  0  0  0  0  0
   50.0170   58.1080   21.3210 C   0  0  0  0  0  0  0  0  0  0  0  0
   49.3090   57.1240   20.6530 C   0  0  0  0  0  0  0  0  0  0  0  0
   47.5740   57.1570   20.6440 Cl  0  0  0  0  0  0  0  0  0  0  0  0
   51.8780   52.2460   18.4670 C   0  0  0  0  0  0  0  0  0  0  0  0
   52.2360   52.5770   19.9170 C   0  0  0  0  0  0  0  0  0  0  0  0
   52.2550   51.0530   20.9000 S   0  0  0  0  0  0  0  0  0  0  0  0
   52.8180   49.7840   19.7340 C   0  0  0  0  0  0  0  0  0  0  0  0
  1  4  1  1  0  0  0
  1 30  1  0  0  0  0
  1 17  1  0  0  0  0
  2  4  1  0  0  0  0
  3  2  1  0  0  0  0
  4  5  2  0  0  0  0
  6 11  2  0  0  0  0
  7  8  2  0  0  0  0
  7  6  1  0  0  0  0
  8  9  1  0  0  0  0
  9  2  1  0  0  0  0
  9 10  2  0  0  0  0
 11 10  1  0  0  0  0
 12 13  1  0  0  0  0
 13 15  1  0  0  0  0
 14 13  1  0  0  0  0
 15 16  2  0  0  0  0
 15  6  1  0  0  0  0
 17 18  1  0  0  0  0
 19 17  1  0  0  0  0
 19 20  2  0  0  0  0
 19 22  1  0  0  0  0
 21 19  2  0  0  0  0
 22 23  2  0  0  0  0
 22 28  1  0  0  0  0
 23 24  1  0  0  0  0
 24 25  1  0  0  0  0
 24 26  2  0  0  0  0
 27 26  1  0  0  0  0
 28 27  2  0  0  0  0
 29 28  1  0  0  0  0
 30 31  1  0  0  0  0
 31 32  1  0  0  0  0
 33 32  1  0  0  0  0
M  END
>  <MODEL>
8

>  <REMARK>
  Name = ZINC15560389
                            x       y       z     vdW  Elec       q    Type
                         _______ _______ _______ _____ _____    ______ ____

>  <TORSDO>
F 9

>  <minimizedAffinity>
-8.0577025208321249

$$$$
ZINC15560389
 OpenBabel10211213413D

 33 34  0  0  1  0  0  0  0  0999 V2000
   49.5370   56.2600   20.9090 C   0  0  1  0  0  0  0  0  0  0  0  0
   48.8180   58.0700   19.3850 N   0  0  0  0  0  0  0  0  0  0  0  0
   49.7490   58.3210   19.2900 H   0  0  0  0  0  0  0  0  0  0  0  0
   48.4790   57.0000   20.1330 C   0  0  0  0  0  0  0  0  0  0  0  0
   47.3240   56.6350   20.1820 O   0  0  0  0  0  0  0  0  0  0  0  0
   45.8590   60.2940   17.4750 C   0  0  0  0  0  0  0  0  0  0  0  0
   46.4470   59.2070   16.8250 C   0  0  0  0  0  0  0  0  0  0  0  0
   47.4240   58.4740   17.4590 C   0  0  0  0  0  0  0  0  0  0  0  0
   47.8260   58.8150   18.7460 C   0  0  0  0  0  0  0  0  0  0  0  0
   47.2430   59.8980   19.3970 C   0  0  0  0  0  0  0  0  0  0  0  0
   46.2650   60.6350   18.7680 C   0  0  0  0  0  0  0  0  0  0  0  0
   44.0540   62.5280   14.9890 C   0  0  0  0  0  0  0  0  0  0  0  0
   45.0940   61.7450   15.6600 N   0  0  0  0  0  0  0  0  0  0  0  0
   45.9870   61.7040   15.2840 H   0  0  0  0  0  0  0  0  0  0  0  0
   44.8110   61.0840   16.7990 C   0  0  0  0  0  0  0  0  0  0  0  0
   43.6910   61.1370   17.2700 O   0  0  0  0  0  0  0  0  0  0  0  0
   50.4950   55.6580   19.9780 N   0  0  0  0  0  0  0  0  0  0  0  0
   51.0540   56.2240   19.4240 H   0  0  0  0  0  0  0  0  0  0  0  0
   50.6220   54.0110   19.8710 S   0  0  0  0  0  0  0  0  0  0  0  0
   50.0240   53.4800   21.0460 O   0  0  0  0  0  0  0  0  0  0  0  0
   51.9670   53.7300   19.5080 O   0  0  0  0  0  0  0  0  0  0  0  0
   49.6180   53.4970   18.5190 C   0  0  0  0  0  0  0  0  0  0  0  0
   48.9420   54.4380   17.7630 C   0  0  0  0  0  0  0  0  0  0  0  0
   48.1530   54.0330   16.7010 C   0  0  0  0  0  0  0  0  0  0  0  0
   47.3040   55.2140   15.7520 Cl  0  0  0  0  0  0  0  0  0  0  0  0
   48.0410   52.6900   16.3940 C   0  0  0  0  0  0  0  0  0  0  0  0
   48.7160   51.7500   17.1490 C   0  0  0  0  0  0  0  0  0  0  0  0
   49.5100   52.1540   18.2080 C   0  0  0  0  0  0  0  0  0  0  0  0
   50.3640   50.9740   19.1510 Cl  0  0  0  0  0  0  0  0  0  0  0  0
   50.2690   57.2360   21.8330 C   0  0  0  0  0  0  0  0  0  0  0  0
   51.6320   56.6550   22.2130 C   0  0  0  0  0  0  0  0  0  0  0  0
   52.9280   57.8760   21.8710 S   0  0  0  0  0  0  0  0  0  0  0  0
   53.7620   57.2310   20.3960 C   0  0  0  0  0  0  0  0  0  0  0  0
  1 17  1  6  0  0  0
  1 30  1  0  0  0  0
  2  4  1  0  0  0  0
  3  2  1  0  0  0  0
  4  5  2  0  0  0  0
  4  1  1  0  0  0  0
  6 11  2  0  0  0  0
  7  8  2  0  0  0  0
  7  6  1  0  0  0  0
  8  9  1  0  0  0  0
  9  2  1  0  0  0  0
  9 10  2  0  0  0  0
 11 10  1  0  0  0  0
 12 13  1  0  0  0  0
 13 15  1  0  0  0  0
 14 13  1  0  0  0  0
 15 16  2  0  0  0  0
 15  6  1  0  0  0  0
 18 17  1  0  0  0  0
 19 17  1  0  0  0  0
 19 20  2  0  0  0  0
 21 19  2  0  0  0  0
 22 19  1  0  0  0  0
 23 22  2  0  0  0  0
 24 23  1  0  0  0  0
 25 24  1  0  0  0  0
 26 24  2  0  0  0  0
 26 27  1  0  0  0  0
 27 28  2  0  0  0  0
 28 22  1  0  0  0  0
 28 29  1  0  0  0  0
 30 31  1  0  0  0  0
 32 31  1  0  0  0  0
 33 32  1  0  0  0  0
M  END
>  <MODEL>
9

>  <REMARK>
  Name = ZINC15560389
                            x       y       z     vdW  Elec       q    Type
                         _______ _______ _______ _____ _____    ______ ____

>  <TORSDO>
F 9

>  <minimizedAffinity>
-7.8688924376683698

$$$$
ZINC12426122
 OpenBabel10211213443D

 35 37  0  0  1  0  0  0  0  0999 V2000
   51.9700   51.0030   19.0470 C   0  0  0  0  0  0  0  0  0  0  0  0
   52.8870   50.2490   18.8200 O   0  0  0  0  0  0  0  0  0  0  0  0
   50.5780   50.6560   18.5850 C   0  0  0  0  0  0  0  0  0  0  0  0
   47.0910   47.6870   15.9070 C   0  0  0  0  0  0  0  0  0  0  0  0
   48.3210   48.2870   15.7020 C   0  0  0  0  0  0  0  0  0  0  0  0
   48.5460   49.5740   16.1640 C   0  0  0  0  0  0  0  0  0  0  0  0
   47.5430   50.2720   16.8370 C   0  0  0  0  0  0  0  0  0  0  0  0
   47.7480   51.5570   17.3300 N   0  0  0  0  0  0  0  0  0  0  0  0
   46.9540   52.0650   17.5620 H   0  0  0  0  0  0  0  0  0  0  0  0
   48.9170   52.1600   17.5160 C   0  0  0  0  0  0  0  0  0  0  0  0
   50.2410   51.4650   17.3300 C   0  0  2  0  0  0  0  0  0  0  0  0
   48.9190   53.3240   17.8520 O   0  0  0  0  0  0  0  0  0  0  0  0
   46.3100   49.6590   17.0310 C   0  0  0  0  0  0  0  0  0  0  0  0
   50.1110   50.3490   15.9000 S   0  0  0  0  0  0  0  0  0  0  0  0
   46.0900   48.3750   16.5680 C   0  0  0  0  0  0  0  0  0  0  0  0
   44.7510   47.7210   16.7850 C   0  0  0  0  0  0  0  0  0  0  0  0
   43.9660   47.8740   15.6370 F   0  0  0  0  0  0  0  0  0  0  0  0
   44.1080   48.3230   17.8710 F   0  0  0  0  0  0  0  0  0  0  0  0
   44.9330   46.3590   17.0470 F   0  0  0  0  0  0  0  0  0  0  0  0
   52.1920   52.1480   19.7110 O   0  0  0  0  0  0  0  0  0  0  0  0
   52.6380   53.2870   18.9300 C   0  0  0  0  0  0  0  0  0  0  0  0
   51.8530   54.5090   19.3310 C   0  0  0  0  0  0  0  0  0  0  0  0
   50.8620   54.4040   20.2390 N   0  0  0  0  0  0  0  0  0  0  0  0
   50.6540   53.5440   20.6330 H   0  0  0  0  0  0  0  0  0  0  0  0
   52.1130   55.5870   18.8380 O   0  0  0  0  0  0  0  0  0  0  0  0
   50.1390   55.5290   20.6090 C   0  0  0  0  0  0  0  0  0  0  0  0
   50.4660   56.4920   21.5560 C   0  0  0  0  0  0  0  0  0  0  0  0
   49.5240   57.5710   21.7360 C   0  0  0  0  0  0  0  0  0  0  0  0
   48.4120   57.5480   20.9800 C   0  0  0  0  0  0  0  0  0  0  0  0
   48.6090   56.0710   20.0060 S   0  0  0  0  0  0  0  0  0  0  0  0
   51.7100   56.4200   22.3300 C   0  0  0  0  0  0  0  0  0  0  0  0
   52.5640   57.4620   22.3300 N   0  0  0  0  0  0  0  0  0  0  0  0
   52.3540   58.2620   21.8230 H   0  0  0  0  0  0  0  0  0  0  0  0
   53.3890   57.4120   22.8390 H   0  0  0  0  0  0  0  0  0  0  0  0
   51.9720   55.4160   22.9660 O   0  0  0  0  0  0  0  0  0  0  0  0
  1 20  1  0  0  0  0
  2  1  2  0  0  0  0
  3  1  1  0  0  0  0
  4 15  1  0  0  0  0
  5  4  2  0  0  0  0
  5  6  1  0  0  0  0
  6  7  2  0  0  0  0
  7 13  1  0  0  0  0
  7  8  1  0  0  0  0
  8 10  1  0  0  0  0
  8  9  1  0  0  0  0
 10 12  2  0  0  0  0
 11 10  1  0  0  0  0
 11  3  1  1  0  0  0
 14  6  1  0  0  0  0
 14 11  1  0  0  0  0
 15 16  1  0  0  0  0
 15 13  2  0  0  0  0
 16 19  1  0  0  0  0
 16 18  1  0  0  0  0
 17 16  1  0  0  0  0
 21 22  1  0  0  0  0
 21 20  1  0  0  0  0
 22 23  1  0  0  0  0
 23 26  1  0  0  0  0
 23 24  1  0  0  0  0
 25 22  2  0  0  0  0
 26 27  2  0  0  0  0
 27 28  1  0  0  0  0
 27 31  1  0  0  0  0
 29 28  2  0  0  0  0
 30 26  1  0  0  0  0
 30 29  1  0  0  0  0
 31 32  1  0  0  0  0
 31 35  2  0  0  0  0
 32 34  1  0  0  0  0
 33 32  1  0  0  0  0
M  END
>  <MODEL>
1

>  <REMARK>
  Name = ZINC12426122
                            x       y       z     vdW  Elec       q    Type
                         _______ _______ _______ _____ _____    ______ ____

>  <TORSDO>
F 8

>  <minimizedAffinity>
-9.3896479625012823

$$$$
ZINC12426122
 OpenBabel10211213443D

 35 37  0  0  1  0  0  0  0  0999 V2000
   51.4250   50.7700   20.9590 C   0  0  0  0  0  0  0  0  0  0  0  0
   52.5990   50.4970   20.8720 O   0  0  0  0  0  0  0  0  0  0  0  0
   50.9970   52.2040   21.1320 C   0  0  0  0  0  0  0  0  0  0  0  0
   51.1820   57.4750   21.7120 C   0  0  0  0  0  0  0  0  0  0  0  0
   50.2700   56.4990   21.3540 C   0  0  0  0  0  0  0  0  0  0  0  0
   50.6550   55.4700   20.5100 C   0  0  0  0  0  0  0  0  0  0  0  0
   51.9590   55.4060   20.0180 C   0  0  0  0  0  0  0  0  0  0  0  0
   52.3810   54.3720   19.1870 N   0  0  0  0  0  0  0  0  0  0  0  0
   53.2040   54.5190   18.6950 H   0  0  0  0  0  0  0  0  0  0  0  0
   51.7720   53.2070   18.9970 C   0  0  0  0  0  0  0  0  0  0  0  0
   50.5600   52.7740   19.7810 C   0  0  2  0  0  0  0  0  0  0  0  0
   52.2120   52.4560   18.1540 O   0  0  0  0  0  0  0  0  0  0  0  0
   52.8640   56.3970   20.3820 C   0  0  0  0  0  0  0  0  0  0  0  0
   49.4940   54.2240   20.0440 S   0  0  0  0  0  0  0  0  0  0  0  0
   52.4750   57.4220   21.2230 C   0  0  0  0  0  0  0  0  0  0  0  0
   53.4650   58.4890   21.6100 C   0  0  0  0  0  0  0  0  0  0  0  0
   52.7780   59.6220   22.0610 F   0  0  0  0  0  0  0  0  0  0  0  0
   54.2440   58.8280   20.4990 F   0  0  0  0  0  0  0  0  0  0  0  0
   54.2930   58.0100   22.6310 F   0  0  0  0  0  0  0  0  0  0  0  0
   50.5030   49.7960   20.9000 O   0  0  0  0  0  0  0  0  0  0  0  0
   50.6860   48.7760   19.8830 C   0  0  0  0  0  0  0  0  0  0  0  0
   49.6050   48.9070   18.8420 C   0  0  0  0  0  0  0  0  0  0  0  0
   49.4510   47.9480   17.9070 N   0  0  0  0  0  0  0  0  0  0  0  0
   50.0350   47.1750   17.9040 H   0  0  0  0  0  0  0  0  0  0  0  0
   48.8730   49.8750   18.8450 O   0  0  0  0  0  0  0  0  0  0  0  0
   48.4550   48.0690   16.9480 C   0  0  0  0  0  0  0  0  0  0  0  0
   48.4950   48.7650   15.7460 C   0  0  0  0  0  0  0  0  0  0  0  0
   47.3070   48.7170   14.9280 C   0  0  0  0  0  0  0  0  0  0  0  0
   46.2640   48.0110   15.4010 C   0  0  0  0  0  0  0  0  0  0  0  0
   46.8610   47.3940   16.9610 S   0  0  0  0  0  0  0  0  0  0  0  0
   49.6890   49.5060   15.3250 C   0  0  0  0  0  0  0  0  0  0  0  0
   49.9350   50.7300   15.8310 N   0  0  0  0  0  0  0  0  0  0  0  0
   49.3260   51.1190   16.4780 H   0  0  0  0  0  0  0  0  0  0  0  0
   50.7230   51.2210   15.5500 H   0  0  0  0  0  0  0  0  0  0  0  0
   50.4540   49.0170   14.5140 O   0  0  0  0  0  0  0  0  0  0  0  0
  1  3  1  0  0  0  0
  2  1  2  0  0  0  0
  5  4  1  0  0  0  0
  6  5  2  0  0  0  0
  7 13  2  0  0  0  0
  7  6  1  0  0  0  0
  8  7  1  0  0  0  0
  9  8  1  0  0  0  0
 10  8  1  0  0  0  0
 10 11  1  0  0  0  0
 11 14  1  0  0  0  0
 11  3  1  1  0  0  0
 12 10  2  0  0  0  0
 13 15  1  0  0  0  0
 14  6  1  0  0  0  0
 15 16  1  0  0  0  0
 15  4  2  0  0  0  0
 16 17  1  0  0  0  0
 16 19  1  0  0  0  0
 18 16  1  0  0  0  0
 20  1  1  0  0  0  0
 21 20  1  0  0  0  0
 22 25  2  0  0  0  0
 22 21  1  0  0  0  0
 23 22  1  0  0  0  0
 24 23  1  0  0  0  0
 26 30  1  0  0  0  0
 26 23  1  0  0  0  0
 27 26  2  0  0  0  0
 28 29  2  0  0  0  0
 28 27  1  0  0  0  0
 29 30  1  0  0  0  0
 31 27  1  0  0  0  0
 31 32  1  0  0  0  0
 32 33  1  0  0  0  0
 34 32  1  0  0  0  0
 35 31  2  0  0  0  0
M  END
>  <MODEL>
2

>  <REMARK>
  Name = ZINC12426122
                            x       y       z     vdW  Elec       q    Type
                         _______ _______ _______ _____ _____    ______ ____

>  <TORSDO>
F 8

>  <minimizedAffinity>
-9.1826808715119324

$$$$
ZINC12426122
 OpenBabel10211213443D

 35 37  0  0  1  0  0  0  0  0999 V2000
   51.3350   49.7640   19.6150 C   0  0  0  0  0  0  0  0  0  0  0  0
   52.5170   49.5440   19.7370 O   0  0  0  0  0  0  0  0  0  0  0  0
   50.8180   51.1760   19.7150 C   0  0  0  0  0  0  0  0  0  0  0  0
   48.6100   55.9590   20.3470 C   0  0  0  0  0  0  0  0  0  0  0  0
   48.4870   54.8570   19.5200 C   0  0  0  0  0  0  0  0  0  0  0  0
   49.6220   54.2230   19.0420 C   0  0  0  0  0  0  0  0  0  0  0  0
   50.8930   54.6840   19.3880 C   0  0  0  0  0  0  0  0  0  0  0  0
   52.0500   54.0540   18.9410 N   0  0  0  0  0  0  0  0  0  0  0  0
   52.8750   54.5590   19.0140 H   0  0  0  0  0  0  0  0  0  0  0  0
   52.1410   52.8340   18.4240 C   0  0  0  0  0  0  0  0  0  0  0  0
   50.9790   51.8760   18.3630 C   0  0  2  0  0  0  0  0  0  0  0  0
   53.2100   52.4730   17.9810 O   0  0  0  0  0  0  0  0  0  0  0  0
   51.0010   55.7960   20.2170 C   0  0  0  0  0  0  0  0  0  0  0  0
   49.4730   52.8200   17.9800 S   0  0  0  0  0  0  0  0  0  0  0  0
   49.8660   56.4260   20.6910 C   0  0  0  0  0  0  0  0  0  0  0  0
   49.9970   57.6290   21.5870 C   0  0  0  0  0  0  0  0  0  0  0  0
   48.8300   58.3970   21.5100 F   0  0  0  0  0  0  0  0  0  0  0  0
   51.0900   58.3990   21.1780 F   0  0  0  0  0  0  0  0  0  0  0  0
   50.1910   57.2080   22.9080 F   0  0  0  0  0  0  0  0  0  0  0  0
   50.4830   48.7510   19.3900 O   0  0  0  0  0  0  0  0  0  0  0  0
   49.0680   49.0750   19.3600 C   0  0  0  0  0  0  0  0  0  0  0  0
   48.4750   48.6080   18.0560 C   0  0  0  0  0  0  0  0  0  0  0  0
   47.5490   49.3610   17.4290 N   0  0  0  0  0  0  0  0  0  0  0  0
   47.2640   50.2020   17.8170 H   0  0  0  0  0  0  0  0  0  0  0  0
   48.8310   47.5550   17.5690 O   0  0  0  0  0  0  0  0  0  0  0  0
   47.0030   48.9300   16.2290 C   0  0  0  0  0  0  0  0  0  0  0  0
   45.8080   48.2520   16.0180 C   0  0  0  0  0  0  0  0  0  0  0  0
   45.4780   47.9290   14.6500 C   0  0  0  0  0  0  0  0  0  0  0  0
   46.3540   48.3050   13.7020 C   0  0  0  0  0  0  0  0  0  0  0  0
   47.6460   49.1040   14.6310 S   0  0  0  0  0  0  0  0  0  0  0  0
   44.9240   47.8880   17.1290 C   0  0  0  0  0  0  0  0  0  0  0  0
   44.4550   46.6290   17.2330 N   0  0  0  0  0  0  0  0  0  0  0  0
   44.7070   45.9620   16.5750 H   0  0  0  0  0  0  0  0  0  0  0  0
   43.8670   46.3890   17.9670 H   0  0  0  0  0  0  0  0  0  0  0  0
   44.6080   48.7250   17.9550 O   0  0  0  0  0  0  0  0  0  0  0  0
  1  3  1  0  0  0  0
  1  2  2  0  0  0  0
  4 15  1  0  0  0  0
  5  4  2  0  0  0  0
  6  7  2  0  0  0  0
  6  5  1  0  0  0  0
  7 13  1  0  0  0  0
  8  9  1  0  0  0  0
  8  7  1  0  0  0  0
 10  8  1  0  0  0  0
 11 10  1  0  0  0  0
 11  3  1  1  0  0  0
 12 10  2  0  0  0  0
 13 15  2  0  0  0  0
 14 11  1  0  0  0  0
 14  6  1  0  0  0  0
 15 16  1  0  0  0  0
 16 19  1  0  0  0  0
 17 16  1  0  0  0  0
 18 16  1  0  0  0  0
 20  1  1  0  0  0  0
 21 20  1  0  0  0  0
 22 21  1  0  0  0  0
 23 24  1  0  0  0  0
 23 22  1  0  0  0  0
 25 22  2  0  0  0  0
 26 23  1  0  0  0  0
 27 26  2  0  0  0  0
 27 31  1  0  0  0  0
 28 27  1  0  0  0  0
 29 30  1  0  0  0  0
 29 28  2  0  0  0  0
 30 26  1  0  0  0  0
 31 32  1  0  0  0  0
 31 35  2  0  0  0  0
 32 34  1  0  0  0  0
 33 32  1  0  0  0  0
M  END
>  <MODEL>
3

>  <REMARK>
  Name = ZINC12426122
                            x       y       z     vdW  Elec       q    Type
                         _______ _______ _______ _____ _____    ______ ____

>  <TORSDO>
F 8

>  <minimizedAffinity>
-9.0390481616727083

$$$$
ZINC12426122
 OpenBabel10211213443D

 35 37  0  0  1  0  0  0  0  0999 V2000
   51.2890   54.4610   21.1600 C   0  0  0  0  0  0  0  0  0  0  0  0
   51.9490   54.4820   22.1730 O   0  0  0  0  0  0  0  0  0  0  0  0
   50.8340   53.1450   20.5860 C   0  0  0  0  0  0  0  0  0  0  0  0
   48.8580   48.7280   18.4080 C   0  0  0  0  0  0  0  0  0  0  0  0
   49.7120   49.0900   19.4350 C   0  0  0  0  0  0  0  0  0  0  0  0
   50.6450   50.0940   19.2340 C   0  0  0  0  0  0  0  0  0  0  0  0
   50.7320   50.7480   18.0050 C   0  0  0  0  0  0  0  0  0  0  0  0
   51.6440   51.7750   17.7810 N   0  0  0  0  0  0  0  0  0  0  0  0
   51.8160   52.0090   16.8560 H   0  0  0  0  0  0  0  0  0  0  0  0
   52.3040   52.4650   18.7040 C   0  0  0  0  0  0  0  0  0  0  0  0
   52.0540   52.3140   20.1830 C   0  0  2  0  0  0  0  0  0  0  0  0
   53.1470   53.2560   18.3400 O   0  0  0  0  0  0  0  0  0  0  0  0
   49.8700   50.3700   16.9800 C   0  0  0  0  0  0  0  0  0  0  0  0
   51.7430   50.5580   20.5380 S   0  0  0  0  0  0  0  0  0  0  0  0
   48.9410   49.3670   17.1850 C   0  0  0  0  0  0  0  0  0  0  0  0
   48.0140   48.9670   16.0670 C   0  0  0  0  0  0  0  0  0  0  0  0
   48.1870   47.6090   15.7810 F   0  0  0  0  0  0  0  0  0  0  0  0
   48.3040   49.7240   14.9280 F   0  0  0  0  0  0  0  0  0  0  0  0
   46.6890   49.1970   16.4550 F   0  0  0  0  0  0  0  0  0  0  0  0
   50.9630   55.6110   20.5480 O   0  0  0  0  0  0  0  0  0  0  0  0
   49.7240   56.2470   20.9570 C   0  0  0  0  0  0  0  0  0  0  0  0
   48.8060   56.3660   19.7690 C   0  0  0  0  0  0  0  0  0  0  0  0
   49.3070   56.2890   18.5200 N   0  0  0  0  0  0  0  0  0  0  0  0
   50.2580   56.1580   18.3860 H   0  0  0  0  0  0  0  0  0  0  0  0
   47.6150   56.5310   19.9360 O   0  0  0  0  0  0  0  0  0  0  0  0
   48.4610   56.3990   17.4260 C   0  0  0  0  0  0  0  0  0  0  0  0
   47.9610   55.3860   16.6160 C   0  0  0  0  0  0  0  0  0  0  0  0
   47.0870   55.7870   15.5400 C   0  0  0  0  0  0  0  0  0  0  0  0
   46.8390   57.1010   15.4080 C   0  0  0  0  0  0  0  0  0  0  0  0
   47.7770   57.8310   16.7340 S   0  0  0  0  0  0  0  0  0  0  0  0
   48.2980   53.9770   16.8500 C   0  0  0  0  0  0  0  0  0  0  0  0
   47.5850   53.0060   16.2480 N   0  0  0  0  0  0  0  0  0  0  0  0
   46.8510   53.2370   15.6570 H   0  0  0  0  0  0  0  0  0  0  0  0
   47.8060   52.0740   16.4050 H   0  0  0  0  0  0  0  0  0  0  0  0
   49.2190   53.6870   17.5910 O   0  0  0  0  0  0  0  0  0  0  0  0
  1  2  2  0  0  0  0
  3  1  1  0  0  0  0
  4  5  2  0  0  0  0
  6  5  1  0  0  0  0
  6 14  1  0  0  0  0
  7  6  2  0  0  0  0
  8  7  1  0  0  0  0
  8 10  1  0  0  0  0
  9  8  1  0  0  0  0
 10 11  1  0  0  0  0
 11 14  1  0  0  0  0
 11  3  1  6  0  0  0
 12 10  2  0  0  0  0
 13 15  2  0  0  0  0
 13  7  1  0  0  0  0
 15  4  1  0  0  0  0
 16 19  1  0  0  0  0
 16 15  1  0  0  0  0
 17 16  1  0  0  0  0
 18 16  1  0  0  0  0
 20 21  1  0  0  0  0
 20  1  1  0  0  0  0
 22 25  2  0  0  0  0
 22 21  1  0  0  0  0
 23 22  1  0  0  0  0
 24 23  1  0  0  0  0
 26 23  1  0  0  0  0
 27 31  1  0  0  0  0
 27 26  2  0  0  0  0
 28 27  1  0  0  0  0
 29 28  2  0  0  0  0
 29 30  1  0  0  0  0
 30 26  1  0  0  0  0
 31 35  2  0  0  0  0
 32 34  1  0  0  0  0
 32 31  1  0  0  0  0
 33 32  1  0  0  0  0
M  END
>  <MODEL>
4

>  <REMARK>
  Name = ZINC12426122
                            x       y       z     vdW  Elec       q    Type
                         _______ _______ _______ _____ _____    ______ ____

>  <TORSDO>
F 8

>  <minimizedAffinity>
-8.8244295243572015

$$$$
ZINC12426122
 OpenBabel10211213443D

 35 37  0  0  1  0  0  0  0  0999 V2000
   51.6530   53.8510   21.8650 C   0  0  0  0  0  0  0  0  0  0  0  0
   51.5620   53.3120   22.9430 O   0  0  0  0  0  0  0  0  0  0  0  0
   51.1680   53.1430   20.6260 C   0  0  0  0  0  0  0  0  0  0  0  0
   48.7950   48.8220   18.6650 C   0  0  0  0  0  0  0  0  0  0  0  0
   49.7890   49.1420   19.5730 C   0  0  0  0  0  0  0  0  0  0  0  0
   50.7150   50.1250   19.2650 C   0  0  0  0  0  0  0  0  0  0  0  0
   50.6550   50.8000   18.0450 C   0  0  0  0  0  0  0  0  0  0  0  0
   51.5580   51.8070   17.7170 N   0  0  0  0  0  0  0  0  0  0  0  0
   51.6110   52.0550   16.7810 H   0  0  0  0  0  0  0  0  0  0  0  0
   52.3540   52.4620   18.5540 C   0  0  0  0  0  0  0  0  0  0  0  0
   52.3000   52.2890   20.0500 C   0  0  2  0  0  0  0  0  0  0  0  0
   53.1630   53.2380   18.0930 O   0  0  0  0  0  0  0  0  0  0  0  0
   49.6540   50.4640   17.1400 C   0  0  0  0  0  0  0  0  0  0  0  0
   51.9890   50.5350   20.4170 S   0  0  0  0  0  0  0  0  0  0  0  0
   48.7330   49.4820   17.4510 C   0  0  0  0  0  0  0  0  0  0  0  0
   47.6530   49.1280   16.4620 C   0  0  0  0  0  0  0  0  0  0  0  0
   46.5860   50.0230   16.5960 F   0  0  0  0  0  0  0  0  0  0  0  0
   47.2040   47.8270   16.7080 F   0  0  0  0  0  0  0  0  0  0  0  0
   48.1670   49.2070   15.1630 F   0  0  0  0  0  0  0  0  0  0  0  0
   52.1860   55.0800   21.7720 O   0  0  0  0  0  0  0  0  0  0  0  0
   51.4360   56.1700   22.3700 C   0  0  0  0  0  0  0  0  0  0  0  0
   50.6740   56.9030   21.2970 C   0  0  0  0  0  0  0  0  0  0  0  0
   49.4070   56.5460   21.0080 N   0  0  0  0  0  0  0  0  0  0  0  0
   48.9850   55.8180   21.4900 H   0  0  0  0  0  0  0  0  0  0  0  0
   51.2000   57.8140   20.6930 O   0  0  0  0  0  0  0  0  0  0  0  0
   48.7050   57.2210   20.0200 C   0  0  0  0  0  0  0  0  0  0  0  0
   48.5210   56.8580   18.6910 C   0  0  0  0  0  0  0  0  0  0  0  0
   47.7330   57.7520   17.8770 C   0  0  0  0  0  0  0  0  0  0  0  0
   47.2510   58.8590   18.4700 C   0  0  0  0  0  0  0  0  0  0  0  0
   47.8490   58.7210   20.1420 S   0  0  0  0  0  0  0  0  0  0  0  0
   49.0940   55.6230   18.1450 C   0  0  0  0  0  0  0  0  0  0  0  0
   48.3640   54.8520   17.3160 N   0  0  0  0  0  0  0  0  0  0  0  0
   47.4610   55.1150   17.0770 H   0  0  0  0  0  0  0  0  0  0  0  0
   48.7420   54.0330   16.9570 H   0  0  0  0  0  0  0  0  0  0  0  0
   50.2260   55.2940   18.4450 O   0  0  0  0  0  0  0  0  0  0  0  0
  1  2  2  0  0  0  0
  3  1  1  0  0  0  0
  4  5  2  0  0  0  0
  6  5  1  0  0  0  0
  6 14  1  0  0  0  0
  7  6  2  0  0  0  0
  8  7  1  0  0  0  0
  8 10  1  0  0  0  0
  9  8  1  0  0  0  0
 10 11  1  0  0  0  0
 11 14  1  0  0  0  0
 11  3  1  6  0  0  0
 12 10  2  0  0  0  0
 13 15  2  0  0  0  0
 13  7  1  0  0  0  0
 15  4  1  0  0  0  0
 16 17  1  0  0  0  0
 16 18  1  0  0  0  0
 16 15  1  0  0  0  0
 19 16  1  0  0  0  0
 20  1  1  0  0  0  0
 20 21  1  0  0  0  0
 22 21  1  0  0  0  0
 23 22  1  0  0  0  0
 23 24  1  0  0  0  0
 25 22  2  0  0  0  0
 26 30  1  0  0  0  0
 26 23  1  0  0  0  0
 27 26  2  0  0  0  0
 28 29  2  0  0  0  0
 28 27  1  0  0  0  0
 29 30  1  0  0  0  0
 31 35  2  0  0  0  0
 31 27  1  0  0  0  0
 32 31  1  0  0  0  0
 33 32  1  0  0  0  0
 34 32  1  0  0  0  0
M  END
>  <MODEL>
5

>  <REMARK>
  Name = ZINC12426122
                            x       y       z     vdW  Elec       q    Type
                         _______ _______ _______ _____ _____    ______ ____

>  <TORSDO>
F 8

>  <minimizedAffinity>
-8.6944533889445914

$$$$
ZINC12426122
 OpenBabel10211213443D

 35 37  0  0  1  0  0  0  0  0999 V2000
   51.8600   52.6890   20.8400 C   0  0  0  0  0  0  0  0  0  0  0  0
   51.9230   52.8680   22.0330 O   0  0  0  0  0  0  0  0  0  0  0  0
   50.8630   51.7080   20.2780 C   0  0  0  0  0  0  0  0  0  0  0  0
   47.0480   48.3770   18.6960 C   0  0  0  0  0  0  0  0  0  0  0  0
   48.1120   48.3960   19.5790 C   0  0  0  0  0  0  0  0  0  0  0  0
   49.3210   48.9490   19.1900 C   0  0  0  0  0  0  0  0  0  0  0  0
   49.4770   49.4920   17.9150 C   0  0  0  0  0  0  0  0  0  0  0  0
   50.6730   50.0740   17.5040 N   0  0  0  0  0  0  0  0  0  0  0  0
   50.7880   50.2030   16.5500 H   0  0  0  0  0  0  0  0  0  0  0  0
   51.6720   50.4680   18.2850 C   0  0  0  0  0  0  0  0  0  0  0  0
   51.5970   50.4570   19.7900 C   0  0  2  0  0  0  0  0  0  0  0  0
   52.6940   50.8570   17.7620 O   0  0  0  0  0  0  0  0  0  0  0  0
   48.4000   49.4610   17.0350 C   0  0  0  0  0  0  0  0  0  0  0  0
   50.6870   48.9710   20.3100 S   0  0  0  0  0  0  0  0  0  0  0  0
   47.1950   48.9080   17.4270 C   0  0  0  0  0  0  0  0  0  0  0  0
   46.0360   48.8810   16.4660 C   0  0  0  0  0  0  0  0  0  0  0  0
   44.9650   49.6010   17.0070 F   0  0  0  0  0  0  0  0  0  0  0  0
   45.6440   47.5580   16.2450 F   0  0  0  0  0  0  0  0  0  0  0  0
   46.4220   49.4630   15.2530 F   0  0  0  0  0  0  0  0  0  0  0  0
   52.6760   53.3640   20.0150 O   0  0  0  0  0  0  0  0  0  0  0  0
   52.0670   54.0070   18.8650 C   0  0  0  0  0  0  0  0  0  0  0  0
   51.3000   55.2220   19.3180 C   0  0  0  0  0  0  0  0  0  0  0  0
   50.2410   55.0820   20.1410 N   0  0  0  0  0  0  0  0  0  0  0  0
   49.9730   54.2000   20.4420 H   0  0  0  0  0  0  0  0  0  0  0  0
   51.6340   56.3260   18.9420 O   0  0  0  0  0  0  0  0  0  0  0  0
   49.5350   56.2000   20.5580 C   0  0  0  0  0  0  0  0  0  0  0  0
   49.8920   57.1380   21.5200 C   0  0  0  0  0  0  0  0  0  0  0  0
   48.9610   58.2160   21.7530 C   0  0  0  0  0  0  0  0  0  0  0  0
   47.8300   58.2180   21.0260 C   0  0  0  0  0  0  0  0  0  0  0  0
   47.9920   56.7650   20.0110 S   0  0  0  0  0  0  0  0  0  0  0  0
   51.1560   57.0400   22.2580 C   0  0  0  0  0  0  0  0  0  0  0  0
   52.0710   58.0240   22.1590 N   0  0  0  0  0  0  0  0  0  0  0  0
   51.8910   58.8000   21.6050 H   0  0  0  0  0  0  0  0  0  0  0  0
   52.9080   57.9580   22.6450 H   0  0  0  0  0  0  0  0  0  0  0  0
   51.3800   56.0670   22.9540 O   0  0  0  0  0  0  0  0  0  0  0  0
  1  2  2  0  0  0  0
  3  1  1  0  0  0  0
  4  5  2  0  0  0  0
  6  5  1  0  0  0  0
  6 14  1  0  0  0  0
  7  6  2  0  0  0  0
  8  7  1  0  0  0  0
  8 10  1  0  0  0  0
  9  8  1  0  0  0  0
 10 11  1  0  0  0  0
 11  3  1  6  0  0  0
 11 14  1  0  0  0  0
 12 10  2  0  0  0  0
 13 15  2  0  0  0  0
 13  7  1  0  0  0  0
 15  4  1  0  0  0  0
 16 17  1  0  0  0  0
 16 15  1  0  0  0  0
 18 16  1  0  0  0  0
 19 16  1  0  0  0  0
 20  1  1  0  0  0  0
 21 22  1  0  0  0  0
 21 20  1  0  0  0  0
 22 23  1  0  0  0  0
 23 24  1  0  0  0  0
 23 26  1  0  0  0  0
 25 22  2  0  0  0  0
 26 27  2  0  0  0  0
 27 28  1  0  0  0  0
 27 31  1  0  0  0  0
 29 28  2  0  0  0  0
 30 26  1  0  0  0  0
 30 29  1  0  0  0  0
 31 35  2  0  0  0  0
 32 31  1  0  0  0  0
 32 34  1  0  0  0  0
 33 32  1  0  0  0  0
M  END
>  <MODEL>
6

>  <REMARK>
  Name = ZINC12426122
                            x       y       z     vdW  Elec       q    Type
                         _______ _______ _______ _____ _____    ______ ____

>  <TORSDO>
F 8

>  <minimizedAffinity>
-8.6793964323550448

$$$$
ZINC12426122
 OpenBabel10211213443D

 35 37  0  0  1  0  0  0  0  0999 V2000
   49.3830   50.7680   17.1870 C   0  0  0  0  0  0  0  0  0  0  0  0
   49.1570   51.8230   16.6440 O   0  0  0  0  0  0  0  0  0  0  0  0
   49.4510   50.6950   18.6910 C   0  0  0  0  0  0  0  0  0  0  0  0
   52.2150   54.9400   20.2690 C   0  0  0  0  0  0  0  0  0  0  0  0
   52.3260   53.9060   19.3570 C   0  0  0  0  0  0  0  0  0  0  0  0
   51.9800   52.6170   19.7280 C   0  0  0  0  0  0  0  0  0  0  0  0
   51.5160   52.3500   21.0170 C   0  0  0  0  0  0  0  0  0  0  0  0
   51.1410   51.0700   21.4120 N   0  0  0  0  0  0  0  0  0  0  0  0
   51.0670   50.9140   22.3660 H   0  0  0  0  0  0  0  0  0  0  0  0
   50.8750   50.0400   20.6160 C   0  0  0  0  0  0  0  0  0  0  0  0
   50.8180   50.1510   19.1150 C   0  0  2  0  0  0  0  0  0  0  0  0
   50.6670   48.9580   21.1230 O   0  0  0  0  0  0  0  0  0  0  0  0
   51.4150   53.3980   21.9250 C   0  0  0  0  0  0  0  0  0  0  0  0
   52.1250   51.2910   18.5710 S   0  0  0  0  0  0  0  0  0  0  0  0
   51.7620   54.6820   21.5500 C   0  0  0  0  0  0  0  0  0  0  0  0
   51.6470   55.8090   22.5430 C   0  0  0  0  0  0  0  0  0  0  0  0
   51.6540   55.2880   23.8420 F   0  0  0  0  0  0  0  0  0  0  0  0
   50.4520   56.5020   22.3260 F   0  0  0  0  0  0  0  0  0  0  0  0
   52.7290   56.6820   22.3860 F   0  0  0  0  0  0  0  0  0  0  0  0
   49.5740   49.6610   16.4510 O   0  0  0  0  0  0  0  0  0  0  0  0
   49.4350   49.7950   15.0120 C   0  0  0  0  0  0  0  0  0  0  0  0
   48.0740   49.3040   14.5920 C   0  0  0  0  0  0  0  0  0  0  0  0
   47.3900   48.4560   15.3870 N   0  0  0  0  0  0  0  0  0  0  0  0
   47.7730   48.1620   16.2270 H   0  0  0  0  0  0  0  0  0  0  0  0
   47.5940   49.6700   13.5400 O   0  0  0  0  0  0  0  0  0  0  0  0
   46.1370   48.0040   15.0000 C   0  0  0  0  0  0  0  0  0  0  0  0
   44.9630   47.9730   15.7440 C   0  0  0  0  0  0  0  0  0  0  0  0
   43.7900   47.4500   15.0850 C   0  0  0  0  0  0  0  0  0  0  0  0
   43.9340   47.0330   13.8140 C   0  0  0  0  0  0  0  0  0  0  0  0
   45.6570   47.3360   13.4770 S   0  0  0  0  0  0  0  0  0  0  0  0
   44.9160   48.4550   17.1290 C   0  0  0  0  0  0  0  0  0  0  0  0
   44.1530   47.8180   18.0380 N   0  0  0  0  0  0  0  0  0  0  0  0
   43.6380   47.0380   17.7780 H   0  0  0  0  0  0  0  0  0  0  0  0
   44.1200   48.1390   18.9530 H   0  0  0  0  0  0  0  0  0  0  0  0
   45.5630   49.4330   17.4540 O   0  0  0  0  0  0  0  0  0  0  0  0
  1  3  1  0  0  0  0
  2  1  2  0  0  0  0
  4 15  2  0  0  0  0
  5  6  2  0  0  0  0
  5  4  1  0  0  0  0
  6  7  1  0  0  0  0
  7  8  1  0  0  0  0
  7 13  2  0  0  0  0
  8  9  1  0  0  0  0
 10 12  2  0  0  0  0
 10  8  1  0  0  0  0
 11  3  1  1  0  0  0
 11 10  1  0  0  0  0
 14 11  1  0  0  0  0
 14  6  1  0  0  0  0
 15 13  1  0  0  0  0
 15 16  1  0  0  0  0
 16 17  1  0  0  0  0
 18 16  1  0  0  0  0
 19 16  1  0  0  0  0
 20  1  1  0  0  0  0
 21 20  1  0  0  0  0
 22 21  1  0  0  0  0
 22 23  1  0  0  0  0
 23 24  1  0  0  0  0
 25 22  2  0  0  0  0
 26 23  1  0  0  0  0
 26 27  2  0  0  0  0
 27 31  1  0  0  0  0
 28 27  1  0  0  0  0
 29 28  2  0  0  0  0
 30 29  1  0  0  0  0
 30 26  1  0  0  0  0
 31 35  2  0  0  0  0
 31 32  1  0  0  0  0
 32 34  1  0  0  0  0
 33 32  1  0  0  0  0
M  END
>  <MODEL>
7

>  <REMARK>
  Name = ZINC12426122
                            x       y       z     vdW  Elec       q    Type
                         _______ _______ _______ _____ _____    ______ ____

>  <TORSDO>
F 8

>  <minimizedAffinity>
-8.6775544977150751

$$$$
ZINC12426122
 OpenBabel10211213443D

 35 37  0  0  1  0  0  0  0  0999 V2000
   50.2130   49.4570   19.4700 C   0  0  0  0  0  0  0  0  0  0  0  0
   50.7210   48.5950   20.1480 O   0  0  0  0  0  0  0  0  0  0  0  0
   50.5810   50.9020   19.6900 C   0  0  0  0  0  0  0  0  0  0  0  0
   48.7280   55.8320   20.3300 C   0  0  0  0  0  0  0  0  0  0  0  0
   48.5220   54.7420   19.5040 C   0  0  0  0  0  0  0  0  0  0  0  0
   49.6060   54.0270   19.0210 C   0  0  0  0  0  0  0  0  0  0  0  0
   50.9080   54.3950   19.3620 C   0  0  0  0  0  0  0  0  0  0  0  0
   52.0150   53.6830   18.9090 N   0  0  0  0  0  0  0  0  0  0  0  0
   52.8750   54.1270   18.9780 H   0  0  0  0  0  0  0  0  0  0  0  0
   52.0140   52.4590   18.3930 C   0  0  0  0  0  0  0  0  0  0  0  0
   50.7860   51.5880   18.3370 C   0  0  2  0  0  0  0  0  0  0  0  0
   53.0520   52.0220   17.9440 O   0  0  0  0  0  0  0  0  0  0  0  0
   51.1010   55.4960   20.1890 C   0  0  0  0  0  0  0  0  0  0  0  0
   49.3510   52.6380   17.9600 S   0  0  0  0  0  0  0  0  0  0  0  0
   50.0160   56.2060   20.6680 C   0  0  0  0  0  0  0  0  0  0  0  0
   50.2380   57.3970   21.5640 C   0  0  0  0  0  0  0  0  0  0  0  0
   50.6880   56.9620   22.8150 F   0  0  0  0  0  0  0  0  0  0  0  0
   49.0370   58.0960   21.7170 F   0  0  0  0  0  0  0  0  0  0  0  0
   51.1980   58.2390   20.9910 F   0  0  0  0  0  0  0  0  0  0  0  0
   49.3210   49.1280   18.5230 O   0  0  0  0  0  0  0  0  0  0  0  0
   47.9420   48.9600   18.9450 C   0  0  0  0  0  0  0  0  0  0  0  0
   47.0470   48.9230   17.7340 C   0  0  0  0  0  0  0  0  0  0  0  0
   47.1340   47.8960   16.8640 N   0  0  0  0  0  0  0  0  0  0  0  0
   47.7720   47.1830   17.0170 H   0  0  0  0  0  0  0  0  0  0  0  0
   46.2490   49.8150   17.5410 O   0  0  0  0  0  0  0  0  0  0  0  0
   46.3100   47.8620   15.7480 C   0  0  0  0  0  0  0  0  0  0  0  0
   46.5530   48.3760   14.4800 C   0  0  0  0  0  0  0  0  0  0  0  0
   45.5140   48.1920   13.4950 C   0  0  0  0  0  0  0  0  0  0  0  0
   44.4010   47.5480   13.8890 C   0  0  0  0  0  0  0  0  0  0  0  0
   44.7290   47.1730   15.5990 S   0  0  0  0  0  0  0  0  0  0  0  0
   47.8070   49.0650   14.1560 C   0  0  0  0  0  0  0  0  0  0  0  0
   47.8740   49.8670   13.0760 N   0  0  0  0  0  0  0  0  0  0  0  0
   47.0930   49.9940   12.5150 H   0  0  0  0  0  0  0  0  0  0  0  0
   48.7050   50.3200   12.8600 H   0  0  0  0  0  0  0  0  0  0  0  0
   48.7870   48.9060   14.8590 O   0  0  0  0  0  0  0  0  0  0  0  0
  1  3  1  0  0  0  0
  1  2  2  0  0  0  0
  4 15  1  0  0  0  0
  5  4  2  0  0  0  0
  6  7  2  0  0  0  0
  6  5  1  0  0  0  0
  7 13  1  0  0  0  0
  8  9  1  0  0  0  0
  8  7  1  0  0  0  0
 10  8  1  0  0  0  0
 11 10  1  0  0  0  0
 11  3  1  1  0  0  0
 12 10  2  0  0  0  0
 13 15  2  0  0  0  0
 14 11  1  0  0  0  0
 14  6  1  0  0  0  0
 15 16  1  0  0  0  0
 16 18  1  0  0  0  0
 16 17  1  0  0  0  0
 19 16  1  0  0  0  0
 20 21  1  0  0  0  0
 20  1  1  0  0  0  0
 22 21  1  0  0  0  0
 23 24  1  0  0  0  0
 23 22  1  0  0  0  0
 25 22  2  0  0  0  0
 26 23  1  0  0  0  0
 27 26  2  0  0  0  0
 28 29  2  0  0  0  0
 28 27  1  0  0  0  0
 29 30  1  0  0  0  0
 30 26  1  0  0  0  0
 31 27  1  0  0  0  0
 31 35  2  0  0  0  0
 32 31  1  0  0  0  0
 33 32  1  0  0  0  0
 34 32  1  0  0  0  0
M  END
>  <MODEL>
8

>  <REMARK>
  Name = ZINC12426122
                            x       y       z     vdW  Elec       q    Type
                         _______ _______ _______ _____ _____    ______ ____

>  <TORSDO>
F 8

>  <minimizedAffinity>
-8.5909658418759829

$$$$
ZINC12426122
 OpenBabel10211213443D

 35 37  0  0  1  0  0  0  0  0999 V2000
   52.1190   51.3580   18.0360 C   0  0  0  0  0  0  0  0  0  0  0  0
   52.9430   50.8630   17.3030 O   0  0  0  0  0  0  0  0  0  0  0  0
   50.6810   50.9130   17.9600 C   0  0  0  0  0  0  0  0  0  0  0  0
   47.1130   47.1300   16.9020 C   0  0  0  0  0  0  0  0  0  0  0  0
   48.2480   47.6790   16.3320 C   0  0  0  0  0  0  0  0  0  0  0  0
   48.4280   49.0530   16.3370 C   0  0  0  0  0  0  0  0  0  0  0  0
   47.4750   49.8920   16.9160 C   0  0  0  0  0  0  0  0  0  0  0  0
   47.6380   51.2730   16.9550 N   0  0  0  0  0  0  0  0  0  0  0  0
   46.8450   51.7990   17.1430 H   0  0  0  0  0  0  0  0  0  0  0  0
   48.7680   51.9440   16.7610 C   0  0  0  0  0  0  0  0  0  0  0  0
   50.1060   51.2730   16.5880 C   0  0  2  0  0  0  0  0  0  0  0  0
   48.7200   53.1550   16.7210 O   0  0  0  0  0  0  0  0  0  0  0  0
   46.3360   49.3260   17.4800 C   0  0  0  0  0  0  0  0  0  0  0  0
   49.8710   49.7610   15.6060 S   0  0  0  0  0  0  0  0  0  0  0  0
   46.1610   47.9550   17.4720 C   0  0  0  0  0  0  0  0  0  0  0  0
   44.9240   47.3550   18.0870 C   0  0  0  0  0  0  0  0  0  0  0  0
   43.9330   48.3380   18.1950 F   0  0  0  0  0  0  0  0  0  0  0  0
   45.2280   46.8600   19.3580 F   0  0  0  0  0  0  0  0  0  0  0  0
   44.4590   46.3120   17.2780 F   0  0  0  0  0  0  0  0  0  0  0  0
   52.4840   52.3030   18.9160 O   0  0  0  0  0  0  0  0  0  0  0  0
   52.1680   52.0600   20.3120 C   0  0  0  0  0  0  0  0  0  0  0  0
   51.4290   53.2480   20.8730 C   0  0  0  0  0  0  0  0  0  0  0  0
   51.5870   54.4640   20.3140 N   0  0  0  0  0  0  0  0  0  0  0  0
   52.1760   54.5760   19.5520 H   0  0  0  0  0  0  0  0  0  0  0  0
   50.6910   53.1090   21.8260 O   0  0  0  0  0  0  0  0  0  0  0  0
   50.9060   55.5570   20.8300 C   0  0  0  0  0  0  0  0  0  0  0  0
   49.6700   56.0640   20.4470 C   0  0  0  0  0  0  0  0  0  0  0  0
   49.1910   57.2210   21.1650 C   0  0  0  0  0  0  0  0  0  0  0  0
   49.9830   57.7120   22.1350 C   0  0  0  0  0  0  0  0  0  0  0  0
   51.3930   56.6250   22.1030 S   0  0  0  0  0  0  0  0  0  0  0  0
   48.8860   55.4480   19.3700 C   0  0  0  0  0  0  0  0  0  0  0  0
   48.8110   56.0470   18.1660 N   0  0  0  0  0  0  0  0  0  0  0  0
   49.2780   56.8820   18.0090 H   0  0  0  0  0  0  0  0  0  0  0  0
   48.2890   55.6410   17.4550 H   0  0  0  0  0  0  0  0  0  0  0  0
   48.3000   54.4000   19.5680 O   0  0  0  0  0  0  0  0  0  0  0  0
  1 20  1  0  0  0  0
  2  1  2  0  0  0  0
  3  1  1  0  0  0  0
  4 15  2  0  0  0  0
  5  6  2  0  0  0  0
  5  4  1  0  0  0  0
  6  7  1  0  0  0  0
  7  8  1  0  0  0  0
  7 13  2  0  0  0  0
  8  9  1  0  0  0  0
 10  8  1  0  0  0  0
 11 10  1  0  0  0  0
 11  3  1  1  0  0  0
 12 10  2  0  0  0  0
 14  6  1  0  0  0  0
 14 11  1  0  0  0  0
 15 13  1  0  0  0  0
 15 16  1  0  0  0  0
 16 17  1  0  0  0  0
 16 18  1  0  0  0  0
 19 16  1  0  0  0  0
 20 21  1  0  0  0  0
 21 22  1  0  0  0  0
 22 25  2  0  0  0  0
 23 26  1  0  0  0  0
 23 22  1  0  0  0  0
 24 23  1  0  0  0  0
 26 30  1  0  0  0  0
 27 26  2  0  0  0  0
 27 28  1  0  0  0  0
 28 29  2  0  0  0  0
 30 29  1  0  0  0  0
 31 35  2  0  0  0  0
 31 27  1  0  0  0  0
 32 31  1  0  0  0  0
 33 32  1  0  0  0  0
 34 32  1  0  0  0  0
M  END
>  <MODEL>
9

>  <REMARK>
  Name = ZINC12426122
                            x       y       z     vdW  Elec       q    Type
                         _______ _______ _______ _____ _____    ______ ____

>  <TORSDO>
F 8

>  <minimizedAffinity>
-8.451308280085728

$$$$
ZINC02782013
 OpenBabel10211213463D

 32 33  0  0  1  0  0  0  0  0999 V2000
   53.1260   58.5300   21.3420 C   0  0  0  0  0  0  0  0  0  0  0  0
   52.1970   57.3160   21.4050 C   0  0  1  0  0  0  0  0  0  0  0  0
   50.8270   57.6850   20.8240 C   0  0  0  0  0  0  0  0  0  0  0  0
   49.8700   56.4940   20.9450 C   0  0  2  0  0  0  0  0  0  0  0  0
   50.5320   55.2980   20.4150 N   0  0  0  0  0  0  0  0  0  0  0  0
   51.8840   55.1860   20.2590 C   0  0  0  0  0  0  0  0  0  0  0  0
   52.1480   53.9680   19.7480 C   0  0  0  0  0  0  0  0  0  0  0  0
   50.9150   53.2970   19.5820 C   0  0  0  0  0  0  0  0  0  0  0  0
   49.9500   54.1050   19.9870 N   0  0  0  0  0  0  0  0  0  0  0  0
   52.7680   56.2130   20.6050 N   0  0  0  0  0  0  0  0  0  0  0  0
   53.7000   56.2050   20.3360 H   0  0  0  0  0  0  0  0  0  0  0  0
   50.7350   51.9310   19.0490 C   0  0  0  0  0  0  0  0  0  0  0  0
   50.8530   51.7030   17.7270 N   0  0  0  0  0  0  0  0  0  0  0  0
   51.0560   52.4350   17.1240 H   0  0  0  0  0  0  0  0  0  0  0  0
   50.4810   51.0130   19.8050 O   0  0  0  0  0  0  0  0  0  0  0  0
   50.6830   50.4070   17.2220 N   0  0  0  0  0  0  0  0  0  0  0  0
   51.2530   49.6860   17.5330 H   0  0  0  0  0  0  0  0  0  0  0  0
   49.7270   50.1610   16.3040 C   0  0  0  0  0  0  0  0  0  0  0  0
   48.4950   51.3150   16.0200 S   0  0  0  0  0  0  0  0  0  0  0  0
   49.7430   49.0060   15.6090 N   0  0  0  0  0  0  0  0  0  0  0  0
   50.5340   48.7500   15.1090 H   0  0  0  0  0  0  0  0  0  0  0  0
   48.5640   48.1350   15.6110 C   0  0  0  0  0  0  0  0  0  0  0  0
   48.4500   47.4330   16.9650 C   0  0  0  0  0  0  0  0  0  0  0  0
   47.2220   47.8050   17.5920 O   0  0  0  0  0  0  0  0  0  0  0  0
   47.3810   48.6990   18.6970 C   0  0  0  0  0  0  0  0  0  0  0  0
   48.5970   56.7750   20.1470 C   0  0  0  0  0  0  0  0  0  0  0  0
   47.7630   55.6530   20.1870 F   0  0  0  0  0  0  0  0  0  0  0  0
   48.9320   57.0590   18.8180 F   0  0  0  0  0  0  0  0  0  0  0  0
   47.8670   57.9750   20.7550 C   0  0  0  0  0  0  0  0  0  0  0  0
   48.0610   59.0980   19.9430 F   0  0  0  0  0  0  0  0  0  0  0  0
   48.3750   58.2310   22.0330 F   0  0  0  0  0  0  0  0  0  0  0  0
   46.4990   57.6930   20.8430 F   0  0  0  0  0  0  0  0  0  0  0  0
  2  1  1  6  0  0  0
  3  4  1  0  0  0  0
  3  2  1  0  0  0  0
  4 26  1  6  0  0  0
  5  4  1  0  0  0  0
  6  5  1  0  0  0  0
  6 10  1  0  0  0  0
  7  6  2  0  0  0  0
  8  7  1  0  0  0  0
  8  9  2  0  0  0  0
  9  5  1  0  0  0  0
 10  2  1  0  0  0  0
 11 10  1  0  0  0  0
 12  8  1  0  0  0  0
 12 15  2  0  0  0  0
 13 12  1  0  0  0  0
 14 13  1  0  0  0  0
 16 17  1  0  0  0  0
 16 13  1  0  0  0  0
 18 16  1  0  0  0  0
 19 18  2  0  0  0  0
 20 22  1  0  0  0  0
 20 18  1  0  0  0  0
 21 20  1  0  0  0  0
 22 23  1  0  0  0  0
 23 24  1  0  0  0  0
 24 25  1  0  0  0  0
 26 27  1  0  0  0  0
 26 29  1  0  0  0  0
 28 26  1  0  0  0  0
 29 32  1  0  0  0  0
 29 31  1  0  0  0  0
 30 29  1  0  0  0  0
M  END
>  <MODEL>
1

>  <REMARK>
  Name = ZINC02782013
                            x       y       z     vdW  Elec       q    Type
                         _______ _______ _______ _____ _____    ______ ____

>  <TORSDO>
F 9

>  <minimizedAffinity>
-8.2548108993052711

$$$$
ZINC02782013
 OpenBabel10211213463D

 32 33  0  0  1  0  0  0  0  0999 V2000
   47.2120   58.2590   20.7460 C   0  0  0  0  0  0  0  0  0  0  0  0
   48.4400   57.6080   20.1060 C   0  0  1  0  0  0  0  0  0  0  0  0
   49.5800   57.5440   21.1280 C   0  0  0  0  0  0  0  0  0  0  0  0
   50.8350   56.9550   20.4740 C   0  0  2  0  0  0  0  0  0  0  0  0
   50.4730   55.7150   19.7830 N   0  0  0  0  0  0  0  0  0  0  0  0
   49.1950   55.3920   19.4230 C   0  0  0  0  0  0  0  0  0  0  0  0
   49.2210   54.1900   18.8150 C   0  0  0  0  0  0  0  0  0  0  0  0
   50.5640   53.7510   18.7940 C   0  0  0  0  0  0  0  0  0  0  0  0
   51.3080   54.6740   19.3770 N   0  0  0  0  0  0  0  0  0  0  0  0
   48.1080   56.2340   19.6790 N   0  0  0  0  0  0  0  0  0  0  0  0
   47.1900   55.9340   19.5850 H   0  0  0  0  0  0  0  0  0  0  0  0
   51.0510   52.4800   18.2200 C   0  0  0  0  0  0  0  0  0  0  0  0
   50.3190   51.8350   17.2910 N   0  0  0  0  0  0  0  0  0  0  0  0
   49.4720   52.2050   16.9990 H   0  0  0  0  0  0  0  0  0  0  0  0
   52.1140   52.0160   18.5870 O   0  0  0  0  0  0  0  0  0  0  0  0
   50.7820   50.6300   16.7460 N   0  0  0  0  0  0  0  0  0  0  0  0
   51.6900   50.3360   16.9210 H   0  0  0  0  0  0  0  0  0  0  0  0
   49.9660   49.8790   15.9800 C   0  0  0  0  0  0  0  0  0  0  0  0
   50.4180   49.4880   14.3750 S   0  0  0  0  0  0  0  0  0  0  0  0
   48.7950   49.4360   16.4780 N   0  0  0  0  0  0  0  0  0  0  0  0
   47.9600   49.8340   16.1850 H   0  0  0  0  0  0  0  0  0  0  0  0
   48.7810   48.3490   17.4610 C   0  0  0  0  0  0  0  0  0  0  0  0
   48.5610   48.9280   18.8590 C   0  0  0  0  0  0  0  0  0  0  0  0
   49.7620   49.5580   19.3080 O   0  0  0  0  0  0  0  0  0  0  0  0
   50.3670   48.9190   20.4350 C   0  0  0  0  0  0  0  0  0  0  0  0
   51.8830   56.6600   21.5490 C   0  0  0  0  0  0  0  0  0  0  0  0
   52.2810   55.3220   21.4570 F   0  0  0  0  0  0  0  0  0  0  0  0
   51.3330   56.8960   22.8140 F   0  0  0  0  0  0  0  0  0  0  0  0
   53.0960   57.5690   21.3430 C   0  0  0  0  0  0  0  0  0  0  0  0
   52.6610   58.8740   21.0880 F   0  0  0  0  0  0  0  0  0  0  0  0
   53.8470   57.1070   20.2580 F   0  0  0  0  0  0  0  0  0  0  0  0
   53.8870   57.5580   22.4970 F   0  0  0  0  0  0  0  0  0  0  0  0
  2  1  1  1  0  0  0
  2  3  1  0  0  0  0
  4  3  1  0  0  0  0
  4 26  1  1  0  0  0
  5  4  1  0  0  0  0
  6 10  1  0  0  0  0
  6  5  1  0  0  0  0
  7  6  2  0  0  0  0
  8  7  1  0  0  0  0
  8  9  2  0  0  0  0
  9  5  1  0  0  0  0
 10  2  1  0  0  0  0
 11 10  1  0  0  0  0
 12 15  2  0  0  0  0
 12  8  1  0  0  0  0
 13 12  1  0  0  0  0
 14 13  1  0  0  0  0
 16 17  1  0  0  0  0
 16 13  1  0  0  0  0
 18 20  1  0  0  0  0
 18 16  1  0  0  0  0
 19 18  2  0  0  0  0
 20 22  1  0  0  0  0
 21 20  1  0  0  0  0
 22 23  1  0  0  0  0
 23 24  1  0  0  0  0
 24 25  1  0  0  0  0
 26 28  1  0  0  0  0
 27 26  1  0  0  0  0
 29 26  1  0  0  0  0
 29 32  1  0  0  0  0
 30 29  1  0  0  0  0
 31 29  1  0  0  0  0
M  END
>  <MODEL>
2

>  <REMARK>
  Name = ZINC02782013
                            x       y       z     vdW  Elec       q    Type
                         _______ _______ _______ _____ _____    ______ ____

>  <TORSDO>
F 9

>  <minimizedAffinity>
-8.1139534649590299

$$$$
ZINC02782013
 OpenBabel10211213463D

 32 33  0  0  1  0  0  0  0  0999 V2000
   53.0500   58.6400   21.6490 C   0  0  0  0  0  0  0  0  0  0  0  0
   52.1640   57.3930   21.6170 C   0  0  1  0  0  0  0  0  0  0  0  0
   50.8070   57.7410   20.9970 C   0  0  0  0  0  0  0  0  0  0  0  0
   49.8900   56.5130   21.0240 C   0  0  2  0  0  0  0  0  0  0  0  0
   50.6160   55.3670   20.4680 N   0  0  0  0  0  0  0  0  0  0  0  0
   51.9770   55.3090   20.3640 C   0  0  0  0  0  0  0  0  0  0  0  0
   52.3060   54.1260   19.8090 C   0  0  0  0  0  0  0  0  0  0  0  0
   51.1050   53.4220   19.5620 C   0  0  0  0  0  0  0  0  0  0  0  0
   50.0960   54.1760   19.9620 N   0  0  0  0  0  0  0  0  0  0  0  0
   52.8080   56.3500   20.7930 N   0  0  0  0  0  0  0  0  0  0  0  0
   53.7490   56.3860   20.5630 H   0  0  0  0  0  0  0  0  0  0  0  0
   50.9970   52.0770   18.9610 C   0  0  0  0  0  0  0  0  0  0  0  0
   51.2200   51.9080   17.6430 N   0  0  0  0  0  0  0  0  0  0  0  0
   51.4510   52.6690   17.0880 H   0  0  0  0  0  0  0  0  0  0  0  0
   50.7070   51.1230   19.6560 O   0  0  0  0  0  0  0  0  0  0  0  0
   51.1180   50.6330   17.0730 N   0  0  0  0  0  0  0  0  0  0  0  0
   51.8780   50.0290   17.0950 H   0  0  0  0  0  0  0  0  0  0  0  0
   49.9650   50.2420   16.4940 C   0  0  0  0  0  0  0  0  0  0  0  0
   49.9700   49.6510   14.8870 S   0  0  0  0  0  0  0  0  0  0  0  0
   48.8080   50.3180   17.1810 N   0  0  0  0  0  0  0  0  0  0  0  0
   48.7800   50.0570   18.1150 H   0  0  0  0  0  0  0  0  0  0  0  0
   47.5920   50.7950   16.5170 C   0  0  0  0  0  0  0  0  0  0  0  0
   47.2640   52.2070   17.0060 C   0  0  0  0  0  0  0  0  0  0  0  0
   48.4410   53.0150   16.9500 O   0  0  0  0  0  0  0  0  0  0  0  0
   48.1790   54.4150   16.8310 C   0  0  0  0  0  0  0  0  0  0  0  0
   48.6400   56.7870   20.1870 C   0  0  0  0  0  0  0  0  0  0  0  0
   47.8200   55.6540   20.1860 F   0  0  0  0  0  0  0  0  0  0  0  0
   49.0160   57.0910   18.8730 F   0  0  0  0  0  0  0  0  0  0  0  0
   47.8750   57.9700   20.7830 C   0  0  0  0  0  0  0  0  0  0  0  0
   46.5110   57.6630   20.8360 F   0  0  0  0  0  0  0  0  0  0  0  0
   48.0670   59.1010   19.9840 F   0  0  0  0  0  0  0  0  0  0  0  0
   48.3450   58.2250   22.0760 F   0  0  0  0  0  0  0  0  0  0  0  0
  2  1  1  6  0  0  0
  3  4  1  0  0  0  0
  3  2  1  0  0  0  0
  4 26  1  6  0  0  0
  5  4  1  0  0  0  0
  6  5  1  0  0  0  0
  6 10  1  0  0  0  0
  7  6  2  0  0  0  0
  8  7  1  0  0  0  0
  8  9  2  0  0  0  0
  9  5  1  0  0  0  0
 10  2  1  0  0  0  0
 11 10  1  0  0  0  0
 12  8  1  0  0  0  0
 12 15  2  0  0  0  0
 13 12  1  0  0  0  0
 14 13  1  0  0  0  0
 16 17  1  0  0  0  0
 16 13  1  0  0  0  0
 18 16  1  0  0  0  0
 18 20  1  0  0  0  0
 19 18  2  0  0  0  0
 20 21  1  0  0  0  0
 22 23  1  0  0  0  0
 22 20  1  0  0  0  0
 24 23  1  0  0  0  0
 25 24  1  0  0  0  0
 26 29  1  0  0  0  0
 27 26  1  0  0  0  0
 28 26  1  0  0  0  0
 29 30  1  0  0  0  0
 29 32  1  0  0  0  0
 31 29  1  0  0  0  0
M  END
>  <MODEL>
3

>  <REMARK>
  Name = ZINC02782013
                            x       y       z     vdW  Elec       q    Type
                         _______ _______ _______ _____ _____    ______ ____

>  <TORSDO>
F 9

>  <minimizedAffinity>
-8.0593473717428719

$$$$
ZINC02782013
 OpenBabel10211213463D

 32 33  0  0  1  0  0  0  0  0999 V2000
   44.6310   46.6350   15.9680 C   0  0  0  0  0  0  0  0  0  0  0  0
   46.1020   46.9630   16.2350 C   0  0  1  0  0  0  0  0  0  0  0  0
   46.5700   48.0540   15.2650 C   0  0  0  0  0  0  0  0  0  0  0  0
   48.0600   48.3390   15.4800 C   0  0  2  0  0  0  0  0  0  0  0  0
   48.3010   48.5540   16.9100 N   0  0  0  0  0  0  0  0  0  0  0  0
   47.4470   48.1410   17.8930 C   0  0  0  0  0  0  0  0  0  0  0  0
   47.9680   48.5020   19.0820 C   0  0  0  0  0  0  0  0  0  0  0  0
   49.1920   49.1610   18.8280 C   0  0  0  0  0  0  0  0  0  0  0  0
   49.3840   49.1860   17.5210 N   0  0  0  0  0  0  0  0  0  0  0  0
   46.2560   47.4600   17.6170 N   0  0  0  0  0  0  0  0  0  0  0  0
   45.5720   47.3230   18.2900 H   0  0  0  0  0  0  0  0  0  0  0  0
   50.1020   49.7240   19.8480 C   0  0  0  0  0  0  0  0  0  0  0  0
   50.6530   50.9390   19.6610 N   0  0  0  0  0  0  0  0  0  0  0  0
   50.4550   51.4440   18.8570 H   0  0  0  0  0  0  0  0  0  0  0  0
   50.3510   49.0910   20.8550 O   0  0  0  0  0  0  0  0  0  0  0  0
   51.5150   51.4730   20.6280 N   0  0  0  0  0  0  0  0  0  0  0  0
   51.8770   50.9020   21.3240 H   0  0  0  0  0  0  0  0  0  0  0  0
   51.8420   52.7800   20.5910 C   0  0  0  0  0  0  0  0  0  0  0  0
   52.5060   53.4570   19.1650 S   0  0  0  0  0  0  0  0  0  0  0  0
   51.6470   53.5540   21.6770 N   0  0  0  0  0  0  0  0  0  0  0  0
   51.7480   53.1790   22.5660 H   0  0  0  0  0  0  0  0  0  0  0  0
   51.2820   54.9640   21.5160 C   0  0  0  0  0  0  0  0  0  0  0  0
   51.7880   55.7630   22.7180 C   0  0  0  0  0  0  0  0  0  0  0  0
   52.9110   56.5540   22.3250 O   0  0  0  0  0  0  0  0  0  0  0  0
   52.8620   57.0000   20.9680 C   0  0  0  0  0  0  0  0  0  0  0  0
   48.4620   49.5890   14.6960 C   0  0  0  0  0  0  0  0  0  0  0  0
   48.2320   50.7250   15.4790 F   0  0  0  0  0  0  0  0  0  0  0  0
   47.7010   49.6700   13.5250 F   0  0  0  0  0  0  0  0  0  0  0  0
   49.9460   49.5110   14.3340 C   0  0  0  0  0  0  0  0  0  0  0  0
   50.1020   49.7230   12.9600 F   0  0  0  0  0  0  0  0  0  0  0  0
   50.4420   48.2470   14.6700 F   0  0  0  0  0  0  0  0  0  0  0  0
   50.6510   50.4920   15.0400 F   0  0  0  0  0  0  0  0  0  0  0  0
  2  1  1  1  0  0  0
  2 10  1  0  0  0  0
  3  4  1  0  0  0  0
  3  2  1  0  0  0  0
  4 26  1  1  0  0  0
  4  5  1  0  0  0  0
  5  9  1  0  0  0  0
  5  6  1  0  0  0  0
  6  7  2  0  0  0  0
  8  7  1  0  0  0  0
  8 12  1  0  0  0  0
  9  8  2  0  0  0  0
 10  6  1  0  0  0  0
 10 11  1  0  0  0  0
 12 15  2  0  0  0  0
 13 12  1  0  0  0  0
 13 16  1  0  0  0  0
 14 13  1  0  0  0  0
 16 17  1  0  0  0  0
 18 16  1  0  0  0  0
 18 20  1  0  0  0  0
 19 18  2  0  0  0  0
 20 21  1  0  0  0  0
 22 20  1  0  0  0  0
 22 23  1  0  0  0  0
 24 23  1  0  0  0  0
 25 24  1  0  0  0  0
 26 27  1  0  0  0  0
 28 26  1  0  0  0  0
 29 31  1  0  0  0  0
 29 26  1  0  0  0  0
 29 32  1  0  0  0  0
 30 29  1  0  0  0  0
M  END
>  <MODEL>
4

>  <REMARK>
  Name = ZINC02782013
                            x       y       z     vdW  Elec       q    Type
                         _______ _______ _______ _____ _____    ______ ____

>  <TORSDO>
F 9

>  <minimizedAffinity>
-7.7219260233687921

$$$$
ZINC02782013
 OpenBabel10211213463D

 32 33  0  0  1  0  0  0  0  0999 V2000
   47.2680   58.3470   20.8120 C   0  0  0  0  0  0  0  0  0  0  0  0
   48.4500   57.6390   20.1460 C   0  0  1  0  0  0  0  0  0  0  0  0
   49.6150   57.5390   21.1370 C   0  0  0  0  0  0  0  0  0  0  0  0
   50.8260   56.8920   20.4550 C   0  0  2  0  0  0  0  0  0  0  0  0
   50.3940   55.6590   19.7900 N   0  0  0  0  0  0  0  0  0  0  0  0
   49.0940   55.3850   19.4710 C   0  0  0  0  0  0  0  0  0  0  0  0
   49.0530   54.1760   18.8780 C   0  0  0  0  0  0  0  0  0  0  0  0
   50.3750   53.6820   18.8250 C   0  0  0  0  0  0  0  0  0  0  0  0
   51.1740   54.5800   19.3740 N   0  0  0  0  0  0  0  0  0  0  0  0
   48.0500   56.2750   19.7470 N   0  0  0  0  0  0  0  0  0  0  0  0
   47.1180   56.0110   19.6830 H   0  0  0  0  0  0  0  0  0  0  0  0
   50.7940   52.3850   18.2540 C   0  0  0  0  0  0  0  0  0  0  0  0
   50.0350   51.7860   17.3160 N   0  0  0  0  0  0  0  0  0  0  0  0
   49.2140   52.2040   17.0150 H   0  0  0  0  0  0  0  0  0  0  0  0
   51.8240   51.8600   18.6300 O   0  0  0  0  0  0  0  0  0  0  0  0
   50.4320   50.5560   16.7740 N   0  0  0  0  0  0  0  0  0  0  0  0
   51.2890   50.4780   16.3230 H   0  0  0  0  0  0  0  0  0  0  0  0
   49.6260   49.4810   16.8780 C   0  0  0  0  0  0  0  0  0  0  0  0
   48.8910   49.1030   18.3780 S   0  0  0  0  0  0  0  0  0  0  0  0
   49.3980   48.7040   15.8000 N   0  0  0  0  0  0  0  0  0  0  0  0
   49.9980   47.9700   15.5950 H   0  0  0  0  0  0  0  0  0  0  0  0
   48.2430   48.9670   14.9390 C   0  0  0  0  0  0  0  0  0  0  0  0
   47.1230   47.9800   15.2710 C   0  0  0  0  0  0  0  0  0  0  0  0
   45.8960   48.6920   15.4420 O   0  0  0  0  0  0  0  0  0  0  0  0
   45.2730   48.4820   16.7110 C   0  0  0  0  0  0  0  0  0  0  0  0
   51.8910   56.5660   21.5030 C   0  0  0  0  0  0  0  0  0  0  0  0
   52.3810   55.2740   21.2850 F   0  0  0  0  0  0  0  0  0  0  0  0
   51.3260   56.6410   22.7810 F   0  0  0  0  0  0  0  0  0  0  0  0
   53.0390   57.5720   21.3940 C   0  0  0  0  0  0  0  0  0  0  0  0
   53.7040   57.3900   20.1770 F   0  0  0  0  0  0  0  0  0  0  0  0
   53.9360   57.3720   22.4490 F   0  0  0  0  0  0  0  0  0  0  0  0
   52.5270   58.8720   21.4570 F   0  0  0  0  0  0  0  0  0  0  0  0
  2  1  1  1  0  0  0
  2  3  1  0  0  0  0
  4  3  1  0  0  0  0
  4 26  1  1  0  0  0
  5  4  1  0  0  0  0
  6 10  1  0  0  0  0
  6  5  1  0  0  0  0
  7  6  2  0  0  0  0
  8  7  1  0  0  0  0
  8  9  2  0  0  0  0
  9  5  1  0  0  0  0
 10  2  1  0  0  0  0
 11 10  1  0  0  0  0
 12 15  2  0  0  0  0
 12  8  1  0  0  0  0
 13 12  1  0  0  0  0
 14 13  1  0  0  0  0
 16 18  1  0  0  0  0
 16 13  1  0  0  0  0
 17 16  1  0  0  0  0
 18 19  2  0  0  0  0
 20 18  1  0  0  0  0
 21 20  1  0  0  0  0
 22 23  1  0  0  0  0
 22 20  1  0  0  0  0
 23 24  1  0  0  0  0
 24 25  1  0  0  0  0
 26 28  1  0  0  0  0
 27 26  1  0  0  0  0
 29 32  1  0  0  0  0
 29 26  1  0  0  0  0
 29 31  1  0  0  0  0
 30 29  1  0  0  0  0
M  END
>  <MODEL>
5

>  <REMARK>
  Name = ZINC02782013
                            x       y       z     vdW  Elec       q    Type
                         _______ _______ _______ _____ _____    ______ ____

>  <TORSDO>
F 9

>  <minimizedAffinity>
-7.5971512926364193

$$$$
ZINC02782013
 OpenBabel10211213463D

 32 33  0  0  1  0  0  0  0  0999 V2000
   49.0340   55.6970   19.8310 C   0  0  0  0  0  0  0  0  0  0  0  0
   49.5950   54.5640   18.9680 C   0  0  1  0  0  0  0  0  0  0  0  0
   50.0140   53.3940   19.8650 C   0  0  0  0  0  0  0  0  0  0  0  0
   50.6400   52.2830   19.0140 C   0  0  2  0  0  0  0  0  0  0  0  0
   49.7500   51.9900   17.8870 N   0  0  0  0  0  0  0  0  0  0  0  0
   48.7800   52.8440   17.4440 C   0  0  0  0  0  0  0  0  0  0  0  0
   48.1500   52.2620   16.4050 C   0  0  0  0  0  0  0  0  0  0  0  0
   48.7520   51.0020   16.1920 C   0  0  0  0  0  0  0  0  0  0  0  0
   49.7120   50.8480   17.0870 N   0  0  0  0  0  0  0  0  0  0  0  0
   48.5560   54.0940   18.0310 N   0  0  0  0  0  0  0  0  0  0  0  0
   47.7650   54.6210   17.8360 H   0  0  0  0  0  0  0  0  0  0  0  0
   48.3740   50.0250   15.1500 C   0  0  0  0  0  0  0  0  0  0  0  0
   47.1880   49.3910   15.2200 N   0  0  0  0  0  0  0  0  0  0  0  0
   46.5810   49.5750   15.9540 H   0  0  0  0  0  0  0  0  0  0  0  0
   49.1350   49.7940   14.2300 O   0  0  0  0  0  0  0  0  0  0  0  0
   46.8290   48.4650   14.2310 N   0  0  0  0  0  0  0  0  0  0  0  0
   47.4550   48.2440   13.5230 H   0  0  0  0  0  0  0  0  0  0  0  0
   45.6150   47.8790   14.2640 C   0  0  0  0  0  0  0  0  0  0  0  0
   45.1290   46.8440   12.9900 S   0  0  0  0  0  0  0  0  0  0  0  0
   44.7860   48.1070   15.3020 N   0  0  0  0  0  0  0  0  0  0  0  0
   44.3650   48.9750   15.4050 H   0  0  0  0  0  0  0  0  0  0  0  0
   44.5180   47.0440   16.2730 C   0  0  0  0  0  0  0  0  0  0  0  0
   45.6020   47.0520   17.3510 C   0  0  0  0  0  0  0  0  0  0  0  0
   45.8660   48.3980   17.7510 O   0  0  0  0  0  0  0  0  0  0  0  0
   46.9750   48.5340   18.6420 C   0  0  0  0  0  0  0  0  0  0  0  0
   50.8250   51.0260   19.8660 C   0  0  0  0  0  0  0  0  0  0  0  0
   49.8480   50.0840   19.5260 F   0  0  0  0  0  0  0  0  0  0  0  0
   50.7000   51.3590   21.2200 F   0  0  0  0  0  0  0  0  0  0  0  0
   52.2130   50.4360   19.6120 C   0  0  0  0  0  0  0  0  0  0  0  0
   53.1400   51.0450   20.4650 F   0  0  0  0  0  0  0  0  0  0  0  0
   52.5820   50.6670   18.2830 F   0  0  0  0  0  0  0  0  0  0  0  0
   52.1870   49.0590   19.8580 F   0  0  0  0  0  0  0  0  0  0  0  0
  2  1  1  1  0  0  0
  2  3  1  0  0  0  0
  4  3  1  0  0  0  0
  4 26  1  1  0  0  0
  5  4  1  0  0  0  0
  6  5  1  0  0  0  0
  6 10  1  0  0  0  0
  7  6  2  0  0  0  0
  8  7  1  0  0  0  0
  8  9  2  0  0  0  0
  9  5  1  0  0  0  0
 10  2  1  0  0  0  0
 11 10  1  0  0  0  0
 12 13  1  0  0  0  0
 12  8  1  0  0  0  0
 13 14  1  0  0  0  0
 15 12  2  0  0  0  0
 16 18  1  0  0  0  0
 16 13  1  0  0  0  0
 17 16  1  0  0  0  0
 18 20  1  0  0  0  0
 19 18  2  0  0  0  0
 20 21  1  0  0  0  0
 20 22  1  0  0  0  0
 22 23  1  0  0  0  0
 23 24  1  0  0  0  0
 24 25  1  0  0  0  0
 26 28  1  0  0  0  0
 27 26  1  0  0  0  0
 29 32  1  0  0  0  0
 29 26  1  0  0  0  0
 29 30  1  0  0  0  0
 31 29  1  0  0  0  0
M  END
>  <MODEL>
6

>  <REMARK>
  Name = ZINC02782013
                            x       y       z     vdW  Elec       q    Type
                         _______ _______ _______ _____ _____    ______ ____

>  <TORSDO>
F 9

>  <minimizedAffinity>
-7.5351124511383443

$$$$
ZINC02782013
 OpenBabel10211213463D

 32 33  0  0  1  0  0  0  0  0999 V2000
   51.2140   48.5820   20.6360 C   0  0  0  0  0  0  0  0  0  0  0  0
   50.7930   49.4090   19.4190 C   0  0  1  0  0  0  0  0  0  0  0  0
   49.4490   48.8970   18.8890 C   0  0  0  0  0  0  0  0  0  0  0  0
   49.0550   49.6760   17.6290 C   0  0  2  0  0  0  0  0  0  0  0  0
   49.1740   51.1110   17.9020 N   0  0  0  0  0  0  0  0  0  0  0  0
   49.9130   51.6300   18.9260 C   0  0  0  0  0  0  0  0  0  0  0  0
   49.7990   52.9710   18.8900 C   0  0  0  0  0  0  0  0  0  0  0  0
   48.9600   53.2990   17.8010 C   0  0  0  0  0  0  0  0  0  0  0  0
   48.5900   52.1750   17.2130 N   0  0  0  0  0  0  0  0  0  0  0  0
   50.6390   50.8240   19.8110 N   0  0  0  0  0  0  0  0  0  0  0  0
   51.0160   51.1730   20.6340 H   0  0  0  0  0  0  0  0  0  0  0  0
   48.5640   54.6620   17.3900 C   0  0  0  0  0  0  0  0  0  0  0  0
   48.7280   55.6960   18.2380 N   0  0  0  0  0  0  0  0  0  0  0  0
   49.1060   55.5460   19.1190 H   0  0  0  0  0  0  0  0  0  0  0  0
   48.0910   54.8500   16.2860 O   0  0  0  0  0  0  0  0  0  0  0  0
   48.3540   56.9880   17.8480 N   0  0  0  0  0  0  0  0  0  0  0  0
   48.4690   57.2700   16.9270 H   0  0  0  0  0  0  0  0  0  0  0  0
   47.8330   57.8410   18.7530 C   0  0  0  0  0  0  0  0  0  0  0  0
   47.4510   59.4460   18.2950 S   0  0  0  0  0  0  0  0  0  0  0  0
   47.6130   57.4300   20.0170 N   0  0  0  0  0  0  0  0  0  0  0  0
   47.0570   56.6530   20.1860 H   0  0  0  0  0  0  0  0  0  0  0  0
   48.2160   58.1560   21.1390 C   0  0  0  0  0  0  0  0  0  0  0  0
   49.6020   57.5800   21.4330 C   0  0  0  0  0  0  0  0  0  0  0  0
   49.6240   56.1920   21.0930 O   0  0  0  0  0  0  0  0  0  0  0  0
   50.8860   55.5590   21.3140 C   0  0  0  0  0  0  0  0  0  0  0  0
   47.6110   49.3410   17.2500 C   0  0  0  0  0  0  0  0  0  0  0  0
   47.0250   50.4450   16.6220 F   0  0  0  0  0  0  0  0  0  0  0  0
   46.8880   49.0230   18.4050 F   0  0  0  0  0  0  0  0  0  0  0  0
   47.5980   48.1450   16.2960 C   0  0  0  0  0  0  0  0  0  0  0  0
   48.8170   48.0800   15.6130 F   0  0  0  0  0  0  0  0  0  0  0  0
   46.5550   48.2930   15.3750 F   0  0  0  0  0  0  0  0  0  0  0  0
   47.4100   46.9670   17.0280 F   0  0  0  0  0  0  0  0  0  0  0  0
  2 10  1  0  0  0  0
  2  1  1  1  0  0  0
  3  2  1  0  0  0  0
  4 26  1  1  0  0  0
  4  5  1  0  0  0  0
  4  3  1  0  0  0  0
  5  6  1  0  0  0  0
  6 10  1  0  0  0  0
  7  6  2  0  0  0  0
  8  7  1  0  0  0  0
  9  8  2  0  0  0  0
  9  5  1  0  0  0  0
 10 11  1  0  0  0  0
 12  8  1  0  0  0  0
 12 13  1  0  0  0  0
 13 14  1  0  0  0  0
 15 12  2  0  0  0  0
 16 13  1  0  0  0  0
 16 18  1  0  0  0  0
 17 16  1  0  0  0  0
 18 20  1  0  0  0  0
 19 18  2  0  0  0  0
 20 21  1  0  0  0  0
 20 22  1  0  0  0  0
 22 23  1  0  0  0  0
 24 25  1  0  0  0  0
 24 23  1  0  0  0  0
 26 28  1  0  0  0  0
 27 26  1  0  0  0  0
 29 32  1  0  0  0  0
 29 26  1  0  0  0  0
 30 29  1  0  0  0  0
 31 29  1  0  0  0  0
M  END
>  <MODEL>
7

>  <REMARK>
  Name = ZINC02782013
                            x       y       z     vdW  Elec       q    Type
                         _______ _______ _______ _____ _____    ______ ____

>  <TORSDO>
F 9

>  <minimizedAffinity>
-7.3555198177051748

$$$$
ZINC02782013
 OpenBabel10211213463D

 32 33  0  0  1  0  0  0  0  0999 V2000
   48.5060   49.2190   14.6700 C   0  0  0  0  0  0  0  0  0  0  0  0
   48.6480   50.0260   15.9620 C   0  0  1  0  0  0  0  0  0  0  0  0
   50.1250   50.0910   16.3680 C   0  0  0  0  0  0  0  0  0  0  0  0
   50.2680   50.8400   17.6980 C   0  0  2  0  0  0  0  0  0  0  0  0
   49.5310   52.1040   17.6120 N   0  0  0  0  0  0  0  0  0  0  0  0
   48.5520   52.3510   16.6920 C   0  0  0  0  0  0  0  0  0  0  0  0
   48.0930   53.6010   16.8920 C   0  0  0  0  0  0  0  0  0  0  0  0
   48.8120   54.1520   17.9770 C   0  0  0  0  0  0  0  0  0  0  0  0
   49.6730   53.2440   18.4030 N   0  0  0  0  0  0  0  0  0  0  0  0
   48.1560   51.4010   15.7450 N   0  0  0  0  0  0  0  0  0  0  0  0
   47.5930   51.6300   14.9890 H   0  0  0  0  0  0  0  0  0  0  0  0
   48.6320   55.5070   18.5380 C   0  0  0  0  0  0  0  0  0  0  0  0
   48.4180   55.6660   19.8590 N   0  0  0  0  0  0  0  0  0  0  0  0
   48.3810   54.8920   20.4410 H   0  0  0  0  0  0  0  0  0  0  0  0
   48.6790   56.4770   17.8080 O   0  0  0  0  0  0  0  0  0  0  0  0
   48.2480   56.9510   20.3910 N   0  0  0  0  0  0  0  0  0  0  0  0
   47.3700   57.3650   20.3900 H   0  0  0  0  0  0  0  0  0  0  0  0
   49.3040   57.6120   20.9070 C   0  0  0  0  0  0  0  0  0  0  0  0
   49.1240   58.5210   22.3470 S   0  0  0  0  0  0  0  0  0  0  0  0
   50.5000   57.5570   20.2890 N   0  0  0  0  0  0  0  0  0  0  0  0
   50.5780   57.8160   19.3570 H   0  0  0  0  0  0  0  0  0  0  0  0
   51.6850   57.1070   21.0250 C   0  0  0  0  0  0  0  0  0  0  0  0
   52.0380   55.6810   20.6010 C   0  0  0  0  0  0  0  0  0  0  0  0
   52.0710   54.8370   21.7540 O   0  0  0  0  0  0  0  0  0  0  0  0
   51.7330   55.5030   22.9720 C   0  0  0  0  0  0  0  0  0  0  0  0
   51.7460   51.1220   17.9710 C   0  0  0  0  0  0  0  0  0  0  0  0
   51.9570   52.5040   18.0200 F   0  0  0  0  0  0  0  0  0  0  0  0
   52.5230   50.5680   16.9480 F   0  0  0  0  0  0  0  0  0  0  0  0
   52.1460   50.4970   19.3090 C   0  0  0  0  0  0  0  0  0  0  0  0
   52.5020   51.5100   20.2080 F   0  0  0  0  0  0  0  0  0  0  0  0
   53.2360   49.6410   19.1170 F   0  0  0  0  0  0  0  0  0  0  0  0
   51.0680   49.7720   19.8270 F   0  0  0  0  0  0  0  0  0  0  0  0
  2  1  1  6  0  0  0
  2  3  1  0  0  0  0
  3  4  1  0  0  0  0
  4 26  1  6  0  0  0
  5  4  1  0  0  0  0
  5  9  1  0  0  0  0
  6  7  2  0  0  0  0
  6  5  1  0  0  0  0
  7  8  1  0  0  0  0
  8  9  2  0  0  0  0
  8 12  1  0  0  0  0
 10  2  1  0  0  0  0
 10  6  1  0  0  0  0
 11 10  1  0  0  0  0
 12 13  1  0  0  0  0
 13 16  1  0  0  0  0
 13 14  1  0  0  0  0
 15 12  2  0  0  0  0
 16 18  1  0  0  0  0
 17 16  1  0  0  0  0
 18 19  2  0  0  0  0
 20 18  1  0  0  0  0
 20 22  1  0  0  0  0
 21 20  1  0  0  0  0
 23 22  1  0  0  0  0
 23 24  1  0  0  0  0
 24 25  1  0  0  0  0
 26 27  1  0  0  0  0
 26 29  1  0  0  0  0
 28 26  1  0  0  0  0
 29 32  1  0  0  0  0
 29 30  1  0  0  0  0
 31 29  1  0  0  0  0
M  END
>  <MODEL>
8

>  <REMARK>
  Name = ZINC02782013
                            x       y       z     vdW  Elec       q    Type
                         _______ _______ _______ _____ _____    ______ ____

>  <TORSDO>
F 9

>  <minimizedAffinity>
-7.1887561721110593

$$$$
ZINC02782013
 OpenBabel10211213463D

 32 33  0  0  1  0  0  0  0  0999 V2000
   50.7300   48.9710   20.3880 C   0  0  0  0  0  0  0  0  0  0  0  0
   50.1820   49.6030   19.1060 C   0  0  1  0  0  0  0  0  0  0  0  0
   48.7400   49.1340   18.8780 C   0  0  0  0  0  0  0  0  0  0  0  0
   48.2070   49.7090   17.5610 C   0  0  2  0  0  0  0  0  0  0  0  0
   48.4640   51.1520   17.5340 N   0  0  0  0  0  0  0  0  0  0  0  0
   49.3880   51.7730   18.3270 C   0  0  0  0  0  0  0  0  0  0  0  0
   49.3610   53.0910   18.0500 C   0  0  0  0  0  0  0  0  0  0  0  0
   48.3860   53.2970   17.0480 C   0  0  0  0  0  0  0  0  0  0  0  0
   47.8540   52.1260   16.7440 N   0  0  0  0  0  0  0  0  0  0  0  0
   50.1870   51.0730   19.2380 N   0  0  0  0  0  0  0  0  0  0  0  0
   50.7110   51.5260   19.9170 H   0  0  0  0  0  0  0  0  0  0  0  0
   48.0250   54.5960   16.4440 C   0  0  0  0  0  0  0  0  0  0  0  0
   48.4820   55.7420   16.9850 N   0  0  0  0  0  0  0  0  0  0  0  0
   49.0490   55.7140   17.7710 H   0  0  0  0  0  0  0  0  0  0  0  0
   47.3140   54.6300   15.4580 O   0  0  0  0  0  0  0  0  0  0  0  0
   48.1400   56.9730   16.4120 N   0  0  0  0  0  0  0  0  0  0  0  0
   48.4090   57.1760   15.5020 H   0  0  0  0  0  0  0  0  0  0  0  0
   47.4370   57.8770   17.1240 C   0  0  0  0  0  0  0  0  0  0  0  0
   47.7800   58.1130   18.7850 S   0  0  0  0  0  0  0  0  0  0  0  0
   46.4650   58.5940   16.5270 N   0  0  0  0  0  0  0  0  0  0  0  0
   46.3110   59.5150   16.7890 H   0  0  0  0  0  0  0  0  0  0  0  0
   45.6400   57.9830   15.4810 C   0  0  0  0  0  0  0  0  0  0  0  0
   45.6230   58.8910   14.2500 C   0  0  0  0  0  0  0  0  0  0  0  0
   45.7040   58.0920   13.0680 O   0  0  0  0  0  0  0  0  0  0  0  0
   46.8310   57.2130   13.0370 C   0  0  0  0  0  0  0  0  0  0  0  0
   46.7030   49.4520   17.4600 C   0  0  0  0  0  0  0  0  0  0  0  0
   46.0190   50.6720   17.4600 F   0  0  0  0  0  0  0  0  0  0  0  0
   46.2870   48.6840   18.5540 F   0  0  0  0  0  0  0  0  0  0  0  0
   46.4000   48.6970   16.1640 C   0  0  0  0  0  0  0  0  0  0  0  0
   46.8390   47.3730   16.2830 F   0  0  0  0  0  0  0  0  0  0  0  0
   47.0630   49.3140   15.0980 F   0  0  0  0  0  0  0  0  0  0  0  0
   45.0210   48.7110   15.9280 F   0  0  0  0  0  0  0  0  0  0  0  0
  2 10  1  0  0  0  0
  2  1  1  1  0  0  0
  3  2  1  0  0  0  0
  4 26  1  1  0  0  0
  4  3  1  0  0  0  0
  5  4  1  0  0  0  0
  5  6  1  0  0  0  0
  6 10  1  0  0  0  0
  7  6  2  0  0  0  0
  8  7  1  0  0  0  0
  9  8  2  0  0  0  0
  9  5  1  0  0  0  0
 10 11  1  0  0  0  0
 12 13  1  0  0  0  0
 12  8  1  0  0  0  0
 13 14  1  0  0  0  0
 15 12  2  0  0  0  0
 16 13  1  0  0  0  0
 16 18  1  0  0  0  0
 17 16  1  0  0  0  0
 18 19  2  0  0  0  0
 20 21  1  0  0  0  0
 20 18  1  0  0  0  0
 22 20  1  0  0  0  0
 23 22  1  0  0  0  0
 24 23  1  0  0  0  0
 25 24  1  0  0  0  0
 26 28  1  0  0  0  0
 27 26  1  0  0  0  0
 29 30  1  0  0  0  0
 29 26  1  0  0  0  0
 31 29  1  0  0  0  0
 32 29  1  0  0  0  0
M  END
>  <MODEL>
9

>  <REMARK>
  Name = ZINC02782013
                            x       y       z     vdW  Elec       q    Type
                         _______ _______ _______ _____ _____    ______ ____

>  <TORSDO>
F 9

>  <minimizedAffinity>
-7.1701162344243725

$$$$
ZINC02884528
 OpenBabel10211213493D

 34 36  0  0  1  0  0  0  0  0999 V2000
   49.4380   49.4740   17.5000 C   0  0  0  0  0  0  0  0  0  0  0  0
   49.1410   48.9830   16.2440 C   0  0  0  0  0  0  0  0  0  0  0  0
   49.9510   49.2690   15.1740 N   0  0  0  0  0  0  0  0  0  0  0  0
   49.7110   48.9060   14.3070 H   0  0  0  0  0  0  0  0  0  0  0  0
   51.0530   50.0230   15.2610 C   0  0  0  0  0  0  0  0  0  0  0  0
   51.4670   50.5720   16.4190 N   0  0  0  0  0  0  0  0  0  0  0  0
   52.2700   51.1140   16.4490 H   0  0  0  0  0  0  0  0  0  0  0  0
   51.7070   50.2210   14.2560 O   0  0  0  0  0  0  0  0  0  0  0  0
   50.6750   50.3390   17.6370 C   0  0  1  0  0  0  0  0  0  0  0  0
   50.2480   51.6770   18.1830 C   0  0  0  0  0  0  0  0  0  0  0  0
   49.3850   52.4750   17.4550 C   0  0  0  0  0  0  0  0  0  0  0  0
   48.9910   53.7060   17.9540 C   0  0  0  0  0  0  0  0  0  0  0  0
   49.4650   54.1360   19.1900 C   0  0  0  0  0  0  0  0  0  0  0  0
   50.3290   53.3310   19.9160 C   0  0  0  0  0  0  0  0  0  0  0  0
   50.7150   52.1010   19.4130 C   0  0  0  0  0  0  0  0  0  0  0  0
   51.8880   51.0020   20.4080 Br  0  0  0  0  0  0  0  0  0  0  0  0
   48.1430   54.4920   17.2390 O   0  0  0  0  0  0  0  0  0  0  0  0
   47.5250   53.9040   16.0920 C   0  0  0  0  0  0  0  0  0  0  0  0
   49.0800   55.3430   19.6850 O   0  0  0  0  0  0  0  0  0  0  0  0
   50.1170   56.2280   20.1150 C   0  0  0  0  0  0  0  0  0  0  0  0
   49.6150   57.0710   21.2580 C   0  0  0  0  0  0  0  0  0  0  0  0
   50.4560   57.4310   22.2490 N   0  0  0  0  0  0  0  0  0  0  0  0
   50.1310   57.9750   22.9850 H   0  0  0  0  0  0  0  0  0  0  0  0
   51.3830   57.1470   22.2260 H   0  0  0  0  0  0  0  0  0  0  0  0
   48.4550   57.4260   21.2860 O   0  0  0  0  0  0  0  0  0  0  0  0
   47.9440   48.1400   16.0520 C   0  0  0  0  0  0  0  0  0  0  0  0
   47.9080   46.8440   16.5730 C   0  0  0  0  0  0  0  0  0  0  0  0
   46.7860   46.0620   16.3900 C   0  0  0  0  0  0  0  0  0  0  0  0
   45.7000   46.5590   15.6920 C   0  0  0  0  0  0  0  0  0  0  0  0
   45.7290   47.8420   15.1720 C   0  0  0  0  0  0  0  0  0  0  0  0
   46.8420   48.6360   15.3530 C   0  0  0  0  0  0  0  0  0  0  0  0
   49.2050   48.5110   19.8130 C   0  0  0  0  0  0  0  0  0  0  0  0
   48.6230   49.1910   18.6000 C   0  0  0  0  0  0  0  0  0  0  0  0
   47.4460   49.4940   18.5810 O   0  0  0  0  0  0  0  0  0  0  0  0
  1  9  1  0  0  0  0
  1 33  1  0  0  0  0
  2  1  2  0  0  0  0
  3  5  1  0  0  0  0
  3  2  1  0  0  0  0
  4  3  1  0  0  0  0
  5  6  1  0  0  0  0
  6  7  1  0  0  0  0
  6  9  1  0  0  0  0
  8  5  2  0  0  0  0
  9 10  1  6  0  0  0
 10 15  2  0  0  0  0
 11 12  2  0  0  0  0
 11 10  1  0  0  0  0
 12 13  1  0  0  0  0
 13 19  1  0  0  0  0
 13 14  2  0  0  0  0
 15 14  1  0  0  0  0
 15 16  1  0  0  0  0
 17 12  1  0  0  0  0
 18 17  1  0  0  0  0
 19 20  1  0  0  0  0
 20 21  1  0  0  0  0
 21 25  2  0  0  0  0
 21 22  1  0  0  0  0
 22 23  1  0  0  0  0
 24 22  1  0  0  0  0
 26  2  1  0  0  0  0
 26 27  2  0  0  0  0
 28 27  1  0  0  0  0
 29 28  2  0  0  0  0
 30 31  2  0  0  0  0
 30 29  1  0  0  0  0
 31 26  1  0  0  0  0
 33 32  1  0  0  0  0
 34 33  2  0  0  0  0
M  END
>  <MODEL>
1

>  <REMARK>
  Name = ZINC02884528
                            x       y       z     vdW  Elec       q    Type
                         _______ _______ _______ _____ _____    ______ ____

>  <TORSDO>
F 7

>  <minimizedAffinity>
-8.5103644685276443

$$$$
ZINC02884528
 OpenBabel10211213493D

 34 36  0  0  1  0  0  0  0  0999 V2000
   50.5760   51.1210   18.9230 C   0  0  0  0  0  0  0  0  0  0  0  0
   50.6770   51.3430   20.2820 C   0  0  0  0  0  0  0  0  0  0  0  0
   50.7510   50.2880   21.1570 N   0  0  0  0  0  0  0  0  0  0  0  0
   50.8210   50.4810   22.1050 H   0  0  0  0  0  0  0  0  0  0  0  0
   50.7300   49.0060   20.7740 C   0  0  0  0  0  0  0  0  0  0  0  0
   50.6330   48.6360   19.4820 N   0  0  0  0  0  0  0  0  0  0  0  0
   50.6210   47.6980   19.2370 H   0  0  0  0  0  0  0  0  0  0  0  0
   50.8010   48.1400   21.6240 O   0  0  0  0  0  0  0  0  0  0  0  0
   50.5420   49.6820   18.4500 C   0  0  1  0  0  0  0  0  0  0  0  0
   49.2610   49.4740   17.6840 C   0  0  0  0  0  0  0  0  0  0  0  0
   48.0780   49.2580   18.3650 C   0  0  0  0  0  0  0  0  0  0  0  0
   46.8990   49.0670   17.6640 C   0  0  0  0  0  0  0  0  0  0  0  0
   46.9090   49.0950   16.2720 C   0  0  0  0  0  0  0  0  0  0  0  0
   48.0980   49.3120   15.5950 C   0  0  0  0  0  0  0  0  0  0  0  0
   49.2710   49.5060   16.3020 C   0  0  0  0  0  0  0  0  0  0  0  0
   50.8910   49.8100   15.3760 Br  0  0  0  0  0  0  0  0  0  0  0  0
   45.7340   48.8540   18.3320 O   0  0  0  0  0  0  0  0  0  0  0  0
   45.5460   47.5600   18.9110 C   0  0  0  0  0  0  0  0  0  0  0  0
   45.7540   48.9080   15.5780 O   0  0  0  0  0  0  0  0  0  0  0  0
   45.6440   47.7070   14.8110 C   0  0  0  0  0  0  0  0  0  0  0  0
   44.5980   46.8130   15.4240 C   0  0  0  0  0  0  0  0  0  0  0  0
   44.9140   45.5500   15.7760 N   0  0  0  0  0  0  0  0  0  0  0  0
   44.2400   44.9740   16.1710 H   0  0  0  0  0  0  0  0  0  0  0  0
   45.8140   45.2180   15.6330 H   0  0  0  0  0  0  0  0  0  0  0  0
   43.4730   47.2290   15.6020 O   0  0  0  0  0  0  0  0  0  0  0  0
   50.7080   52.7250   20.7980 C   0  0  0  0  0  0  0  0  0  0  0  0
   51.6670   53.1010   21.7410 C   0  0  0  0  0  0  0  0  0  0  0  0
   51.6900   54.3950   22.2190 C   0  0  0  0  0  0  0  0  0  0  0  0
   50.7660   55.3190   21.7660 C   0  0  0  0  0  0  0  0  0  0  0  0
   49.8120   54.9540   20.8320 C   0  0  0  0  0  0  0  0  0  0  0  0
   49.7810   53.6650   20.3410 C   0  0  0  0  0  0  0  0  0  0  0  0
   49.1590   52.6410   17.5030 C   0  0  0  0  0  0  0  0  0  0  0  0
   50.5000   52.1850   18.0190 C   0  0  0  0  0  0  0  0  0  0  0  0
   51.5150   52.7420   17.6480 O   0  0  0  0  0  0  0  0  0  0  0  0
  1  2  2  0  0  0  0
  2 26  1  0  0  0  0
  2  3  1  0  0  0  0
  3  4  1  0  0  0  0
  5  3  1  0  0  0  0
  5  8  2  0  0  0  0
  6  5  1  0  0  0  0
  7  6  1  0  0  0  0
  9 10  1  1  0  0  0
  9  1  1  0  0  0  0
  9  6  1  0  0  0  0
 10 11  1  0  0  0  0
 12 17  1  0  0  0  0
 12 11  2  0  0  0  0
 13 12  1  0  0  0  0
 14 13  2  0  0  0  0
 14 15  1  0  0  0  0
 15 10  2  0  0  0  0
 16 15  1  0  0  0  0
 17 18  1  0  0  0  0
 19 13  1  0  0  0  0
 20 21  1  0  0  0  0
 20 19  1  0  0  0  0
 21 25  2  0  0  0  0
 21 22  1  0  0  0  0
 22 23  1  0  0  0  0
 24 22  1  0  0  0  0
 26 27  1  0  0  0  0
 27 28  2  0  0  0  0
 29 28  1  0  0  0  0
 30 29  2  0  0  0  0
 31 26  2  0  0  0  0
 31 30  1  0  0  0  0
 32 33  1  0  0  0  0
 33  1  1  0  0  0  0
 34 33  2  0  0  0  0
M  END
>  <MODEL>
2

>  <REMARK>
  Name = ZINC02884528
                            x       y       z     vdW  Elec       q    Type
                         _______ _______ _______ _____ _____    ______ ____

>  <TORSDO>
F 7

>  <minimizedAffinity>
-7.315775724918236

$$$$
ZINC02884528
 OpenBabel10211213493D

 34 36  0  0  1  0  0  0  0  0999 V2000
   49.7110   52.1910   17.6890 C   0  0  0  0  0  0  0  0  0  0  0  0
   50.1900   52.7810   18.8420 C   0  0  0  0  0  0  0  0  0  0  0  0
   51.2270   52.2120   19.5380 N   0  0  0  0  0  0  0  0  0  0  0  0
   51.5370   52.6550   20.3430 H   0  0  0  0  0  0  0  0  0  0  0  0
   51.8330   51.0780   19.1670 C   0  0  0  0  0  0  0  0  0  0  0  0
   51.4730   50.3900   18.0670 N   0  0  0  0  0  0  0  0  0  0  0  0
   51.9320   49.5710   17.8250 H   0  0  0  0  0  0  0  0  0  0  0  0
   52.7440   50.6520   19.8500 O   0  0  0  0  0  0  0  0  0  0  0  0
   50.3670   50.9000   17.2410 C   0  0  1  0  0  0  0  0  0  0  0  0
   49.3020   49.8360   17.1730 C   0  0  0  0  0  0  0  0  0  0  0  0
   48.5860   49.5040   18.3080 C   0  0  0  0  0  0  0  0  0  0  0  0
   47.6060   48.5270   18.2490 C   0  0  0  0  0  0  0  0  0  0  0  0
   47.3440   47.8820   17.0440 C   0  0  0  0  0  0  0  0  0  0  0  0
   48.0640   48.2190   15.9100 C   0  0  0  0  0  0  0  0  0  0  0  0
   49.0390   49.1990   15.9750 C   0  0  0  0  0  0  0  0  0  0  0  0
   50.0150   49.6630   14.4240 Br  0  0  0  0  0  0  0  0  0  0  0  0
   46.9020   48.1990   19.3650 O   0  0  0  0  0  0  0  0  0  0  0  0
   45.5820   47.6850   19.1720 C   0  0  0  0  0  0  0  0  0  0  0  0
   46.3830   46.9210   16.9810 O   0  0  0  0  0  0  0  0  0  0  0  0
   45.8720   46.5990   15.6860 C   0  0  0  0  0  0  0  0  0  0  0  0
   44.3820   46.3910   15.7710 C   0  0  0  0  0  0  0  0  0  0  0  0
   43.8890   45.1880   16.1280 N   0  0  0  0  0  0  0  0  0  0  0  0
   42.9290   45.0550   16.1830 H   0  0  0  0  0  0  0  0  0  0  0  0
   44.4940   44.4570   16.3290 H   0  0  0  0  0  0  0  0  0  0  0  0
   43.6270   47.3060   15.5180 O   0  0  0  0  0  0  0  0  0  0  0  0
   49.5840   54.0360   19.3280 C   0  0  0  0  0  0  0  0  0  0  0  0
   50.3850   55.1550   19.5700 C   0  0  0  0  0  0  0  0  0  0  0  0
   49.8110   56.3240   20.0230 C   0  0  0  0  0  0  0  0  0  0  0  0
   48.4460   56.3910   20.2390 C   0  0  0  0  0  0  0  0  0  0  0  0
   47.6460   55.2860   20.0020 C   0  0  0  0  0  0  0  0  0  0  0  0
   48.2060   54.1110   19.5430 C   0  0  0  0  0  0  0  0  0  0  0  0
   47.2740   52.1630   17.0620 C   0  0  0  0  0  0  0  0  0  0  0  0
   48.6560   52.7580   16.9690 C   0  0  0  0  0  0  0  0  0  0  0  0
   48.8520   53.7310   16.2660 O   0  0  0  0  0  0  0  0  0  0  0  0
  1  2  2  0  0  0  0
  2 26  1  0  0  0  0
  2  3  1  0  0  0  0
  3  4  1  0  0  0  0
  5  3  1  0  0  0  0
  5  8  2  0  0  0  0
  6  5  1  0  0  0  0
  7  6  1  0  0  0  0
  9 10  1  1  0  0  0
  9  1  1  0  0  0  0
  9  6  1  0  0  0  0
 10 11  2  0  0  0  0
 12 11  1  0  0  0  0
 12 17  1  0  0  0  0
 13 12  2  0  0  0  0
 14 15  2  0  0  0  0
 14 13  1  0  0  0  0
 15 10  1  0  0  0  0
 16 15  1  0  0  0  0
 18 17  1  0  0  0  0
 19 13  1  0  0  0  0
 20 21  1  0  0  0  0
 20 19  1  0  0  0  0
 21 22  1  0  0  0  0
 22 23  1  0  0  0  0
 22 24  1  0  0  0  0
 25 21  2  0  0  0  0
 26 31  2  0  0  0  0
 26 27  1  0  0  0  0
 27 28  2  0  0  0  0
 28 29  1  0  0  0  0
 30 29  2  0  0  0  0
 31 30  1  0  0  0  0
 33 32  1  0  0  0  0
 33  1  1  0  0  0  0
 34 33  2  0  0  0  0
M  END
>  <MODEL>
3

>  <REMARK>
  Name = ZINC02884528
                            x       y       z     vdW  Elec       q    Type
                         _______ _______ _______ _____ _____    ______ ____

>  <TORSDO>
F 7

>  <minimizedAffinity>
-6.8126266619449813

$$$$
ZINC02884528
 OpenBabel10211213493D

 34 36  0  0  1  0  0  0  0  0999 V2000
   46.2280   61.3250   17.2610 C   0  0  0  0  0  0  0  0  0  0  0  0
   46.0420   59.9570   17.2630 C   0  0  0  0  0  0  0  0  0  0  0  0
   45.1840   59.3680   16.3680 N   0  0  0  0  0  0  0  0  0  0  0  0
   45.0790   58.4040   16.3990 H   0  0  0  0  0  0  0  0  0  0  0  0
   44.4840   60.0510   15.4560 C   0  0  0  0  0  0  0  0  0  0  0  0
   44.5610   61.3900   15.3350 N   0  0  0  0  0  0  0  0  0  0  0  0
   44.0400   61.8560   14.6630 H   0  0  0  0  0  0  0  0  0  0  0  0
   43.7490   59.4400   14.7050 O   0  0  0  0  0  0  0  0  0  0  0  0
   45.4460   62.1340   16.2450 C   0  0  1  0  0  0  0  0  0  0  0  0
   44.6100   63.1390   16.9960 C   0  0  0  0  0  0  0  0  0  0  0  0
   43.4920   62.7210   17.6940 C   0  0  0  0  0  0  0  0  0  0  0  0
   42.7220   63.6410   18.3850 C   0  0  0  0  0  0  0  0  0  0  0  0
   43.0770   64.9870   18.3760 C   0  0  0  0  0  0  0  0  0  0  0  0
   44.1990   65.4000   17.6760 C   0  0  0  0  0  0  0  0  0  0  0  0
   44.9660   64.4740   16.9910 C   0  0  0  0  0  0  0  0  0  0  0  0
   46.5010   65.0390   16.0420 Br  0  0  0  0  0  0  0  0  0  0  0  0
   41.6210   63.2320   19.0710 O   0  0  0  0  0  0  0  0  0  0  0  0
   41.0480   61.9790   18.6890 C   0  0  0  0  0  0  0  0  0  0  0  0
   42.3240   65.8950   19.0540 O   0  0  0  0  0  0  0  0  0  0  0  0
   41.7490   66.9590   18.2920 C   0  0  0  0  0  0  0  0  0  0  0  0
   40.2470   66.8680   18.3570 C   0  0  0  0  0  0  0  0  0  0  0  0
   39.6400   65.6660   18.2730 N   0  0  0  0  0  0  0  0  0  0  0  0
   38.6720   65.6080   18.3150 H   0  0  0  0  0  0  0  0  0  0  0  0
   40.1710   64.8610   18.1710 H   0  0  0  0  0  0  0  0  0  0  0  0
   39.5830   67.8750   18.4840 O   0  0  0  0  0  0  0  0  0  0  0  0
   46.7740   59.1210   18.2350 C   0  0  0  0  0  0  0  0  0  0  0  0
   46.6050   59.3290   19.6060 C   0  0  0  0  0  0  0  0  0  0  0  0
   47.2920   58.5430   20.5080 C   0  0  0  0  0  0  0  0  0  0  0  0
   48.1480   57.5530   20.0580 C   0  0  0  0  0  0  0  0  0  0  0  0
   48.3210   57.3430   18.7010 C   0  0  0  0  0  0  0  0  0  0  0  0
   47.6350   58.1170   17.7870 C   0  0  0  0  0  0  0  0  0  0  0  0
   46.5890   62.4000   19.5080 C   0  0  0  0  0  0  0  0  0  0  0  0
   47.0980   61.9400   18.1650 C   0  0  0  0  0  0  0  0  0  0  0  0
   48.2660   62.1050   17.8710 O   0  0  0  0  0  0  0  0  0  0  0  0
  1  2  2  0  0  0  0
  1 33  1  0  0  0  0
  2 26  1  0  0  0  0
  3  4  1  0  0  0  0
  3  2  1  0  0  0  0
  5  3  1  0  0  0  0
  6  5  1  0  0  0  0
  6  9  1  0  0  0  0
  7  6  1  0  0  0  0
  8  5  2  0  0  0  0
  9 10  1  1  0  0  0
  9  1  1  0  0  0  0
 10 11  1  0  0  0  0
 11 12  2  0  0  0  0
 12 17  1  0  0  0  0
 13 12  1  0  0  0  0
 13 19  1  0  0  0  0
 14 13  2  0  0  0  0
 15 10  2  0  0  0  0
 15 14  1  0  0  0  0
 16 15  1  0  0  0  0
 18 17  1  0  0  0  0
 20 21  1  0  0  0  0
 20 19  1  0  0  0  0
 21 25  2  0  0  0  0
 22 23  1  0  0  0  0
 22 21  1  0  0  0  0
 24 22  1  0  0  0  0
 26 27  1  0  0  0  0
 27 28  2  0  0  0  0
 29 28  1  0  0  0  0
 30 29  2  0  0  0  0
 31 26  2  0  0  0  0
 31 30  1  0  0  0  0
 33 32  1  0  0  0  0
 34 33  2  0  0  0  0
M  END
>  <MODEL>
4

>  <REMARK>
  Name = ZINC02884528
                            x       y       z     vdW  Elec       q    Type
                         _______ _______ _______ _____ _____    ______ ____

>  <TORSDO>
F 7

>  <minimizedAffinity>
-6.3171922381047372

$$$$
ZINC02884528
 OpenBabel10211213493D

 34 36  0  0  1  0  0  0  0  0999 V2000
   43.6650   63.7930   17.5450 C   0  0  0  0  0  0  0  0  0  0  0  0
   42.4190   64.3170   17.2590 C   0  0  0  0  0  0  0  0  0  0  0  0
   41.2890   63.7690   17.8110 N   0  0  0  0  0  0  0  0  0  0  0  0
   40.4310   64.1630   17.5880 H   0  0  0  0  0  0  0  0  0  0  0  0
   41.3050   62.7190   18.6410 C   0  0  0  0  0  0  0  0  0  0  0  0
   42.4440   62.1020   19.0090 N   0  0  0  0  0  0  0  0  0  0  0  0
   42.4220   61.3430   19.6120 H   0  0  0  0  0  0  0  0  0  0  0  0
   40.2490   62.3050   19.0800 O   0  0  0  0  0  0  0  0  0  0  0  0
   43.7230   62.5980   18.4750 C   0  0  1  0  0  0  0  0  0  0  0  0
   44.3930   61.4670   17.7380 C   0  0  0  0  0  0  0  0  0  0  0  0
   43.7200   60.8090   16.7260 C   0  0  0  0  0  0  0  0  0  0  0  0
   44.3340   59.7690   16.0470 C   0  0  0  0  0  0  0  0  0  0  0  0
   45.6300   59.3910   16.3850 C   0  0  0  0  0  0  0  0  0  0  0  0
   46.3000   60.0550   17.4000 C   0  0  0  0  0  0  0  0  0  0  0  0
   45.6820   61.0950   18.0710 C   0  0  0  0  0  0  0  0  0  0  0  0
   46.6010   62.0040   19.4510 Br  0  0  0  0  0  0  0  0  0  0  0  0
   43.6730   59.1210   15.0520 O   0  0  0  0  0  0  0  0  0  0  0  0
   42.5730   58.2920   15.4360 C   0  0  0  0  0  0  0  0  0  0  0  0
   46.2370   58.3710   15.7210 O   0  0  0  0  0  0  0  0  0  0  0  0
   47.3960   57.7980   16.3300 C   0  0  0  0  0  0  0  0  0  0  0  0
   47.9280   56.6920   15.4560 C   0  0  0  0  0  0  0  0  0  0  0  0
   47.7520   55.4050   15.8170 N   0  0  0  0  0  0  0  0  0  0  0  0
   48.0950   54.6930   15.2530 H   0  0  0  0  0  0  0  0  0  0  0  0
   47.2830   55.1920   16.6390 H   0  0  0  0  0  0  0  0  0  0  0  0
   48.5160   56.9600   14.4290 O   0  0  0  0  0  0  0  0  0  0  0  0
   42.3040   65.4770   16.3540 C   0  0  0  0  0  0  0  0  0  0  0  0
   42.0400   65.2830   14.9960 C   0  0  0  0  0  0  0  0  0  0  0  0
   41.9330   66.3720   14.1560 C   0  0  0  0  0  0  0  0  0  0  0  0
   42.0880   67.6530   14.6550 C   0  0  0  0  0  0  0  0  0  0  0  0
   42.3520   67.8520   16.0000 C   0  0  0  0  0  0  0  0  0  0  0  0
   42.4550   66.7730   16.8520 C   0  0  0  0  0  0  0  0  0  0  0  0
   45.2530   63.9480   15.5990 C   0  0  0  0  0  0  0  0  0  0  0  0
   44.8260   64.3390   16.9910 C   0  0  0  0  0  0  0  0  0  0  0  0
   45.4920   65.1300   17.6300 O   0  0  0  0  0  0  0  0  0  0  0  0
  1  9  1  0  0  0  0
  2  1  2  0  0  0  0
  2  3  1  0  0  0  0
  3  5  1  0  0  0  0
  4  3  1  0  0  0  0
  5  6  1  0  0  0  0
  5  8  2  0  0  0  0
  6  7  1  0  0  0  0
  9 10  1  6  0  0  0
  9  6  1  0  0  0  0
 10 15  1  0  0  0  0
 11 10  2  0  0  0  0
 12 13  2  0  0  0  0
 12 11  1  0  0  0  0
 13 14  1  0  0  0  0
 14 15  2  0  0  0  0
 15 16  1  0  0  0  0
 17 18  1  0  0  0  0
 17 12  1  0  0  0  0
 19 20  1  0  0  0  0
 19 13  1  0  0  0  0
 21 22  1  0  0  0  0
 21 20  1  0  0  0  0
 22 24  1  0  0  0  0
 23 22  1  0  0  0  0
 25 21  2  0  0  0  0
 26 31  1  0  0  0  0
 26  2  1  0  0  0  0
 27 26  2  0  0  0  0
 28 29  2  0  0  0  0
 28 27  1  0  0  0  0
 29 30  1  0  0  0  0
 30 31  2  0  0  0  0
 32 33  1  0  0  0  0
 33  1  1  0  0  0  0
 33 34  2  0  0  0  0
M  END
>  <MODEL>
5

>  <REMARK>
  Name = ZINC02884528
                            x       y       z     vdW  Elec       q    Type
                         _______ _______ _______ _____ _____    ______ ____

>  <TORSDO>
F 7

>  <minimizedAffinity>
-6.1033549496042232

$$$$
ZINC02884528
 OpenBabel10211213493D

 34 36  0  0  1  0  0  0  0  0999 V2000
   44.4100   60.2310   16.6840 C   0  0  0  0  0  0  0  0  0  0  0  0
   45.4050   59.4040   16.2020 C   0  0  0  0  0  0  0  0  0  0  0  0
   46.6020   59.2940   16.8650 N   0  0  0  0  0  0  0  0  0  0  0  0
   47.2780   58.7030   16.4970 H   0  0  0  0  0  0  0  0  0  0  0  0
   46.8870   59.9570   17.9910 C   0  0  0  0  0  0  0  0  0  0  0  0
   46.0160   60.8000   18.5770 N   0  0  0  0  0  0  0  0  0  0  0  0
   46.2540   61.2660   19.3940 H   0  0  0  0  0  0  0  0  0  0  0  0
   47.9760   59.7930   18.5060 O   0  0  0  0  0  0  0  0  0  0  0  0
   44.6990   61.0050   17.9540 C   0  0  1  0  0  0  0  0  0  0  0  0
   44.5470   62.4730   17.6480 C   0  0  0  0  0  0  0  0  0  0  0  0
   45.3900   63.0770   16.7340 C   0  0  0  0  0  0  0  0  0  0  0  0
   45.2530   64.4260   16.4500 C   0  0  0  0  0  0  0  0  0  0  0  0
   44.2650   65.1710   17.0880 C   0  0  0  0  0  0  0  0  0  0  0  0
   43.4230   64.5600   18.0030 C   0  0  0  0  0  0  0  0  0  0  0  0
   43.5630   63.2110   18.2780 C   0  0  0  0  0  0  0  0  0  0  0  0
   42.4070   62.3780   19.5210 Br  0  0  0  0  0  0  0  0  0  0  0  0
   46.0820   65.0220   15.5520 O   0  0  0  0  0  0  0  0  0  0  0  0
   45.8230   64.7750   14.1680 C   0  0  0  0  0  0  0  0  0  0  0  0
   44.1260   66.4960   16.8130 O   0  0  0  0  0  0  0  0  0  0  0  0
   42.9980   66.8800   16.0240 C   0  0  0  0  0  0  0  0  0  0  0  0
   42.2430   67.9770   16.7280 C   0  0  0  0  0  0  0  0  0  0  0  0
   41.7850   67.7820   17.9820 N   0  0  0  0  0  0  0  0  0  0  0  0
   41.2990   68.4900   18.4350 H   0  0  0  0  0  0  0  0  0  0  0  0
   41.9420   66.9360   18.4290 H   0  0  0  0  0  0  0  0  0  0  0  0
   42.0480   69.0350   16.1680 O   0  0  0  0  0  0  0  0  0  0  0  0
   45.1790   58.6310   14.9650 C   0  0  0  0  0  0  0  0  0  0  0  0
   44.6590   57.3360   15.0320 C   0  0  0  0  0  0  0  0  0  0  0  0
   44.4500   56.6200   13.8720 C   0  0  0  0  0  0  0  0  0  0  0  0
   44.7550   57.1810   12.6440 C   0  0  0  0  0  0  0  0  0  0  0  0
   45.2720   58.4630   12.5700 C   0  0  0  0  0  0  0  0  0  0  0  0
   45.4800   59.1930   13.7220 C   0  0  0  0  0  0  0  0  0  0  0  0
   42.0020   59.5320   16.4640 C   0  0  0  0  0  0  0  0  0  0  0  0
   43.1850   60.3540   16.0210 C   0  0  0  0  0  0  0  0  0  0  0  0
   43.0730   61.1250   15.0870 O   0  0  0  0  0  0  0  0  0  0  0  0
  1  9  1  0  0  0  0
  2  1  2  0  0  0  0
  2  3  1  0  0  0  0
  3  5  1  0  0  0  0
  4  3  1  0  0  0  0
  5  8  2  0  0  0  0
  5  6  1  0  0  0  0
  6  7  1  0  0  0  0
  9 10  1  6  0  0  0
  9  6  1  0  0  0  0
 10 15  2  0  0  0  0
 11 10  1  0  0  0  0
 12 11  2  0  0  0  0
 12 13  1  0  0  0  0
 13 14  2  0  0  0  0
 14 15  1  0  0  0  0
 15 16  1  0  0  0  0
 17 12  1  0  0  0  0
 18 17  1  0  0  0  0
 19 13  1  0  0  0  0
 20 21  1  0  0  0  0
 20 19  1  0  0  0  0
 21 22  1  0  0  0  0
 22 24  1  0  0  0  0
 22 23  1  0  0  0  0
 25 21  2  0  0  0  0
 26 27  1  0  0  0  0
 26  2  1  0  0  0  0
 28 27  2  0  0  0  0
 29 28  1  0  0  0  0
 30 29  2  0  0  0  0
 30 31  1  0  0  0  0
 31 26  2  0  0  0  0
 33 32  1  0  0  0  0
 33  1  1  0  0  0  0
 34 33  2  0  0  0  0
M  END
>  <MODEL>
6

>  <REMARK>
  Name = ZINC02884528
                            x       y       z     vdW  Elec       q    Type
                         _______ _______ _______ _____ _____    ______ ____

>  <TORSDO>
F 7

>  <minimizedAffinity>
-5.9484310796470723

$$$$
ZINC02884528
 OpenBabel10211213493D

 34 36  0  0  1  0  0  0  0  0999 V2000
   44.2520   57.3390   12.7650 C   0  0  0  0  0  0  0  0  0  0  0  0
   45.4260   57.4090   12.0420 C   0  0  0  0  0  0  0  0  0  0  0  0
   46.6300   57.1250   12.6370 N   0  0  0  0  0  0  0  0  0  0  0  0
   47.4340   57.1840   12.0970 H   0  0  0  0  0  0  0  0  0  0  0  0
   46.7550   56.7710   13.9210 C   0  0  0  0  0  0  0  0  0  0  0  0
   45.6990   56.6630   14.7500 N   0  0  0  0  0  0  0  0  0  0  0  0
   45.8230   56.4040   15.6760 H   0  0  0  0  0  0  0  0  0  0  0  0
   47.8650   56.5380   14.3580 O   0  0  0  0  0  0  0  0  0  0  0  0
   44.3540   56.9490   14.2260 C   0  0  1  0  0  0  0  0  0  0  0  0
   43.7570   58.0630   15.0470 C   0  0  0  0  0  0  0  0  0  0  0  0
   44.4680   59.2320   15.2420 C   0  0  0  0  0  0  0  0  0  0  0  0
   43.9220   60.2580   15.9960 C   0  0  0  0  0  0  0  0  0  0  0  0
   42.6560   60.1080   16.5560 C   0  0  0  0  0  0  0  0  0  0  0  0
   41.9480   58.9340   16.3570 C   0  0  0  0  0  0  0  0  0  0  0  0
   42.4980   57.9150   15.5980 C   0  0  0  0  0  0  0  0  0  0  0  0
   41.5270   56.3160   15.3220 Br  0  0  0  0  0  0  0  0  0  0  0  0
   44.6200   61.4090   16.1890 O   0  0  0  0  0  0  0  0  0  0  0  0
   44.5650   62.3840   15.1450 C   0  0  0  0  0  0  0  0  0  0  0  0
   42.1160   61.1120   17.2970 O   0  0  0  0  0  0  0  0  0  0  0  0
   42.1150   60.9430   18.7160 C   0  0  0  0  0  0  0  0  0  0  0  0
   43.0150   61.9740   19.3450 C   0  0  0  0  0  0  0  0  0  0  0  0
   44.3540   61.8550   19.2390 N   0  0  0  0  0  0  0  0  0  0  0  0
   44.9330   62.5200   19.6440 H   0  0  0  0  0  0  0  0  0  0  0  0
   44.7370   61.1050   18.7570 H   0  0  0  0  0  0  0  0  0  0  0  0
   42.5350   62.9120   19.9480 O   0  0  0  0  0  0  0  0  0  0  0  0
   45.3860   57.7900   10.6160 C   0  0  0  0  0  0  0  0  0  0  0  0
   45.4180   59.1380   10.2500 C   0  0  0  0  0  0  0  0  0  0  0  0
   45.3800   59.4870    8.9160 C   0  0  0  0  0  0  0  0  0  0  0  0
   45.3090   58.5060    7.9420 C   0  0  0  0  0  0  0  0  0  0  0  0
   45.2760   57.1680    8.2980 C   0  0  0  0  0  0  0  0  0  0  0  0
   45.3190   56.8050    9.6290 C   0  0  0  0  0  0  0  0  0  0  0  0
   42.1830   56.5110   11.5960 C   0  0  0  0  0  0  0  0  0  0  0  0
   43.0180   57.6250   12.1740 C   0  0  0  0  0  0  0  0  0  0  0  0
   42.6170   58.7720   12.1260 O   0  0  0  0  0  0  0  0  0  0  0  0
  1  9  1  0  0  0  0
  2  3  1  0  0  0  0
  2  1  2  0  0  0  0
  3  5  1  0  0  0  0
  4  3  1  0  0  0  0
  5  8  2  0  0  0  0
  5  6  1  0  0  0  0
  6  7  1  0  0  0  0
  9  6  1  0  0  0  0
  9 10  1  6  0  0  0
 10 11  2  0  0  0  0
 10 15  1  0  0  0  0
 11 12  1  0  0  0  0
 12 17  1  0  0  0  0
 12 13  2  0  0  0  0
 13 19  1  0  0  0  0
 14 13  1  0  0  0  0
 15 14  2  0  0  0  0
 16 15  1  0  0  0  0
 18 17  1  0  0  0  0
 19 20  1  0  0  0  0
 20 21  1  0  0  0  0
 21 25  2  0  0  0  0
 22 21  1  0  0  0  0
 22 23  1  0  0  0  0
 24 22  1  0  0  0  0
 26  2  1  0  0  0  0
 27 26  1  0  0  0  0
 28 27  2  0  0  0  0
 29 30  2  0  0  0  0
 29 28  1  0  0  0  0
 30 31  1  0  0  0  0
 31 26  2  0  0  0  0
 32 33  1  0  0  0  0
 33  1  1  0  0  0  0
 34 33  2  0  0  0  0
M  END
>  <MODEL>
7

>  <REMARK>
  Name = ZINC02884528
                            x       y       z     vdW  Elec       q    Type
                         _______ _______ _______ _____ _____    ______ ____

>  <TORSDO>
F 7

>  <minimizedAffinity>
-5.8744346733103603

$$$$
ZINC02884528
 OpenBabel10211213493D

 34 36  0  0  1  0  0  0  0  0999 V2000
   42.9200   64.9830   16.0190 C   0  0  0  0  0  0  0  0  0  0  0  0
   41.5520   65.1500   16.0960 C   0  0  0  0  0  0  0  0  0  0  0  0
   40.9860   65.7890   17.1700 N   0  0  0  0  0  0  0  0  0  0  0  0
   40.0220   65.8880   17.1900 H   0  0  0  0  0  0  0  0  0  0  0  0
   41.6930   66.2840   18.1930 C   0  0  0  0  0  0  0  0  0  0  0  0
   43.0350   66.1950   18.2570 N   0  0  0  0  0  0  0  0  0  0  0  0
   43.5190   66.5630   19.0130 H   0  0  0  0  0  0  0  0  0  0  0  0
   41.1010   66.8350   19.1000 O   0  0  0  0  0  0  0  0  0  0  0  0
   43.7550   65.5240   17.1630 C   0  0  1  0  0  0  0  0  0  0  0  0
   44.5380   64.3770   17.7490 C   0  0  0  0  0  0  0  0  0  0  0  0
   43.8740   63.3360   18.3720 C   0  0  0  0  0  0  0  0  0  0  0  0
   44.5900   62.2810   18.9110 C   0  0  0  0  0  0  0  0  0  0  0  0
   45.9790   62.2700   18.8240 C   0  0  0  0  0  0  0  0  0  0  0  0
   46.6390   63.3150   18.1990 C   0  0  0  0  0  0  0  0  0  0  0  0
   45.9170   64.3640   17.6580 C   0  0  0  0  0  0  0  0  0  0  0  0
   46.8190   65.7860   16.7990 Br  0  0  0  0  0  0  0  0  0  0  0  0
   43.9380   61.2570   19.5250 O   0  0  0  0  0  0  0  0  0  0  0  0
   42.5540   61.0880   19.2100 C   0  0  0  0  0  0  0  0  0  0  0  0
   46.6870   61.2360   19.3530 O   0  0  0  0  0  0  0  0  0  0  0  0
   47.4320   60.4260   18.4400 C   0  0  0  0  0  0  0  0  0  0  0  0
   47.6150   59.0500   19.0250 C   0  0  0  0  0  0  0  0  0  0  0  0
   47.6740   57.9750   18.2120 N   0  0  0  0  0  0  0  0  0  0  0  0
   47.7920   57.0890   18.5890 H   0  0  0  0  0  0  0  0  0  0  0  0
   47.5980   58.0890   17.2520 H   0  0  0  0  0  0  0  0  0  0  0  0
   47.7100   58.9080   20.2260 O   0  0  0  0  0  0  0  0  0  0  0  0
   40.6910   64.6370   15.0120 C   0  0  0  0  0  0  0  0  0  0  0  0
   40.4410   65.4230   13.8840 C   0  0  0  0  0  0  0  0  0  0  0  0
   39.6360   64.9370   12.8750 C   0  0  0  0  0  0  0  0  0  0  0  0
   39.0750   63.6770   12.9790 C   0  0  0  0  0  0  0  0  0  0  0  0
   39.3160   62.8940   14.0950 C   0  0  0  0  0  0  0  0  0  0  0  0
   40.1250   63.3640   15.1090 C   0  0  0  0  0  0  0  0  0  0  0  0
   44.1360   65.1410   13.8210 C   0  0  0  0  0  0  0  0  0  0  0  0
   43.5120   64.3340   14.9310 C   0  0  0  0  0  0  0  0  0  0  0  0
   43.5260   63.1190   14.8810 O   0  0  0  0  0  0  0  0  0  0  0  0
  1  2  2  0  0  0  0
  1  9  1  0  0  0  0
  2  3  1  0  0  0  0
  3  4  1  0  0  0  0
  3  5  1  0  0  0  0
  5  6  1  0  0  0  0
  5  8  2  0  0  0  0
  6  7  1  0  0  0  0
  9 10  1  1  0  0  0
  9  6  1  0  0  0  0
 10 11  1  0  0  0  0
 11 12  2  0  0  0  0
 12 17  1  0  0  0  0
 13 12  1  0  0  0  0
 13 19  1  0  0  0  0
 14 13  2  0  0  0  0
 15 10  2  0  0  0  0
 15 14  1  0  0  0  0
 16 15  1  0  0  0  0
 18 17  1  0  0  0  0
 20 21  1  0  0  0  0
 20 19  1  0  0  0  0
 21 25  2  0  0  0  0
 22 23  1  0  0  0  0
 22 21  1  0  0  0  0
 24 22  1  0  0  0  0
 26 31  1  0  0  0  0
 26  2  1  0  0  0  0
 27 26  2  0  0  0  0
 28 29  2  0  0  0  0
 28 27  1  0  0  0  0
 29 30  1  0  0  0  0
 30 31  2  0  0  0  0
 32 33  1  0  0  0  0
 33  1  1  0  0  0  0
 34 33  2  0  0  0  0
M  END
>  <MODEL>
8

>  <REMARK>
  Name = ZINC02884528
                            x       y       z     vdW  Elec       q    Type
                         _______ _______ _______ _____ _____    ______ ____

>  <TORSDO>
F 7

>  <minimizedAffinity>
-5.8102597126445872

$$$$
ZINC02884528
 OpenBabel10211213493D

 34 36  0  0  1  0  0  0  0  0999 V2000
   50.0410   54.6970   18.4700 C   0  0  0  0  0  0  0  0  0  0  0  0
   49.8030   53.3780   18.8010 C   0  0  0  0  0  0  0  0  0  0  0  0
   48.7830   52.6820   18.2010 N   0  0  0  0  0  0  0  0  0  0  0  0
   48.6460   51.7570   18.4580 H   0  0  0  0  0  0  0  0  0  0  0  0
   47.9680   53.2100   17.2810 C   0  0  0  0  0  0  0  0  0  0  0  0
   48.0780   54.4850   16.8600 N   0  0  0  0  0  0  0  0  0  0  0  0
   47.4720   54.8380   16.1910 H   0  0  0  0  0  0  0  0  0  0  0  0
   47.0930   52.5130   16.8060 O   0  0  0  0  0  0  0  0  0  0  0  0
   49.1340   55.3330   17.4370 C   0  0  1  0  0  0  0  0  0  0  0  0
   48.4770   56.5330   18.0700 C   0  0  0  0  0  0  0  0  0  0  0  0
   48.4490   56.6570   19.4460 C   0  0  0  0  0  0  0  0  0  0  0  0
   47.8470   57.7590   20.0320 C   0  0  0  0  0  0  0  0  0  0  0  0
   47.2710   58.7410   19.2300 C   0  0  0  0  0  0  0  0  0  0  0  0
   47.3030   58.6110   17.8510 C   0  0  0  0  0  0  0  0  0  0  0  0
   47.9100   57.5100   17.2730 C   0  0  0  0  0  0  0  0  0  0  0  0
   47.9580   57.3390   15.3910 Br  0  0  0  0  0  0  0  0  0  0  0  0
   47.8180   57.8820   21.3850 O   0  0  0  0  0  0  0  0  0  0  0  0
   49.0160   58.3360   22.0210 C   0  0  0  0  0  0  0  0  0  0  0  0
   46.6790   59.8240   19.8000 O   0  0  0  0  0  0  0  0  0  0  0  0
   46.8220   61.0740   19.1210 C   0  0  0  0  0  0  0  0  0  0  0  0
   45.6250   61.9420   19.4100 C   0  0  0  0  0  0  0  0  0  0  0  0
   44.3880   61.5120   19.0880 N   0  0  0  0  0  0  0  0  0  0  0  0
   43.6170   62.0730   19.2750 H   0  0  0  0  0  0  0  0  0  0  0  0
   44.2690   60.6450   18.6700 H   0  0  0  0  0  0  0  0  0  0  0  0
   45.7750   63.0270   19.9310 O   0  0  0  0  0  0  0  0  0  0  0  0
   50.6530   52.7110   19.8070 C   0  0  0  0  0  0  0  0  0  0  0  0
   50.3640   52.8410   21.1670 C   0  0  0  0  0  0  0  0  0  0  0  0
   51.1630   52.2150   22.1010 C   0  0  0  0  0  0  0  0  0  0  0  0
   52.2480   51.4600   21.6930 C   0  0  0  0  0  0  0  0  0  0  0  0
   52.5410   51.3270   20.3470 C   0  0  0  0  0  0  0  0  0  0  0  0
   51.7470   51.9430   19.4020 C   0  0  0  0  0  0  0  0  0  0  0  0
   51.0210   55.7290   20.5470 C   0  0  0  0  0  0  0  0  0  0  0  0
   51.0760   55.4200   19.0720 C   0  0  0  0  0  0  0  0  0  0  0  0
   52.0200   55.8000   18.4070 O   0  0  0  0  0  0  0  0  0  0  0  0
  1  2  2  0  0  0  0
  1 33  1  0  0  0  0
  2 26  1  0  0  0  0
  3  4  1  0  0  0  0
  3  2  1  0  0  0  0
  5  3  1  0  0  0  0
  6  5  1  0  0  0  0
  6  9  1  0  0  0  0
  7  6  1  0  0  0  0
  8  5  2  0  0  0  0
  9 10  1  1  0  0  0
  9  1  1  0  0  0  0
 10 11  2  0  0  0  0
 11 12  1  0  0  0  0
 12 17  1  0  0  0  0
 13 19  1  0  0  0  0
 13 12  2  0  0  0  0
 14 13  1  0  0  0  0
 15 14  2  0  0  0  0
 15 10  1  0  0  0  0
 16 15  1  0  0  0  0
 17 18  1  0  0  0  0
 20 21  1  0  0  0  0
 20 19  1  0  0  0  0
 21 25  2  0  0  0  0
 22 23  1  0  0  0  0
 22 21  1  0  0  0  0
 24 22  1  0  0  0  0
 26 27  1  0  0  0  0
 27 28  2  0  0  0  0
 29 28  1  0  0  0  0
 30 29  2  0  0  0  0
 31 26  2  0  0  0  0
 31 30  1  0  0  0  0
 33 32  1  0  0  0  0
 34 33  2  0  0  0  0
M  END
>  <MODEL>
9

>  <REMARK>
  Name = ZINC02884528
                            x       y       z     vdW  Elec       q    Type
                         _______ _______ _______ _____ _____    ______ ____

>  <TORSDO>
F 7

>  <minimizedAffinity>
-5.7979123423831496

$$$$
ZINC12918200
 OpenBabel10211213513D

 32 33  0  0  0  0  0  0  0  0999 V2000
   53.0110   50.0510   19.1140 C   0  0  0  0  0  0  0  0  0  0  0  0
   51.8360   50.4750   19.9030 N   0  0  0  0  0  0  0  0  0  0  0  0
   51.3640   51.2430   19.4110 H   0  0  0  0  0  0  0  0  0  0  0  0
   50.8920   49.3480   20.0520 C   0  0  0  0  0  0  0  0  0  0  0  0
   49.7990   49.4910   19.0230 C   0  0  0  0  0  0  0  0  0  0  0  0
   49.3560   48.4060   18.3560 N   0  0  0  0  0  0  0  0  0  0  0  0
   49.7410   47.5340   18.5370 H   0  0  0  0  0  0  0  0  0  0  0  0
   49.3180   50.5800   18.7960 O   0  0  0  0  0  0  0  0  0  0  0  0
   48.2900   48.5440   17.3610 C   0  0  0  0  0  0  0  0  0  0  0  0
   47.0420   49.1250   18.0280 C   0  0  0  0  0  0  0  0  0  0  0  0
   45.9280   49.2680   16.9890 C   0  0  0  0  0  0  0  0  0  0  0  0
   45.5990   47.8950   16.4000 C   0  0  0  0  0  0  0  0  0  0  0  0
   46.8470   47.3140   15.7330 C   0  0  0  0  0  0  0  0  0  0  0  0
   47.9610   47.1690   16.7730 C   0  0  0  0  0  0  0  0  0  0  0  0
   48.7350   49.4430   16.2850 C   0  0  0  0  0  0  0  0  0  0  0  0
   49.0790   50.1380   15.4540 N   0  0  0  0  0  0  0  0  0  0  0  0
   52.2670   50.9510   21.2340 C   0  0  0  0  0  0  0  0  0  0  0  0
   51.5560   52.2430   21.5420 C   0  0  0  0  0  0  0  0  0  0  0  0
   52.0600   53.4120   21.0990 N   0  0  0  0  0  0  0  0  0  0  0  0
   52.9200   53.4300   20.6490 H   0  0  0  0  0  0  0  0  0  0  0  0
   50.5290   52.2320   22.1880 O   0  0  0  0  0  0  0  0  0  0  0  0
   51.3440   54.6000   21.2880 C   0  0  0  0  0  0  0  0  0  0  0  0
   51.7160   55.4850   22.2910 C   0  0  0  0  0  0  0  0  0  0  0  0
   51.0110   56.6590   22.4720 C   0  0  0  0  0  0  0  0  0  0  0  0
   49.9270   56.9470   21.6610 C   0  0  0  0  0  0  0  0  0  0  0  0
   49.0390   58.4210   21.8940 Cl  0  0  0  0  0  0  0  0  0  0  0  0
   49.5510   56.0650   20.6640 C   0  0  0  0  0  0  0  0  0  0  0  0
   50.2560   54.8920   20.4760 C   0  0  0  0  0  0  0  0  0  0  0  0
   48.3700   56.3830   19.7830 C   0  0  0  0  0  0  0  0  0  0  0  0
   47.2600   56.6790   20.5800 F   0  0  0  0  0  0  0  0  0  0  0  0
   48.0820   55.2790   18.9730 F   0  0  0  0  0  0  0  0  0  0  0  0
   48.6740   57.4850   18.9780 F   0  0  0  0  0  0  0  0  0  0  0  0
  1  2  1  0  0  0  0
  2  4  1  0  0  0  0
  2 17  1  0  0  0  0
  3  2  1  0  0  0  0
  5  4  1  0  0  0  0
  6  7  1  0  0  0  0
  6  5  1  0  0  0  0
  8  5  2  0  0  0  0
  9 10  1  0  0  0  0
  9  6  1  0  0  0  0
 11 10  1  0  0  0  0
 12 11  1  0  0  0  0
 13 12  1  0  0  0  0
 13 14  1  0  0  0  0
 14  9  1  0  0  0  0
 15  9  1  0  0  0  0
 16 15  3  0  0  0  0
 17 18  1  0  0  0  0
 18 21  2  0  0  0  0
 19 22  1  0  0  0  0
 19 18  1  0  0  0  0
 20 19  1  0  0  0  0
 22 23  2  0  0  0  0
 23 24  1  0  0  0  0
 25 26  1  0  0  0  0
 25 24  2  0  0  0  0
 27 25  1  0  0  0  0
 28 27  2  0  0  0  0
 28 22  1  0  0  0  0
 29 30  1  0  0  0  0
 29 27  1  0  0  0  0
 31 29  1  0  0  0  0
 32 29  1  0  0  0  0
M  END
>  <MODEL>
1

>  <REMARK>
  Name = ZINC12918200
                            x       y       z     vdW  Elec       q    Type
                         _______ _______ _______ _____ _____    ______ ____

>  <TORSDO>
F 8

>  <minimizedAffinity>
-9.118186910097803

$$$$
ZINC12918200
 OpenBabel10211213513D

 32 33  0  0  0  0  0  0  0  0999 V2000
   53.1030   49.6410   19.4840 C   0  0  0  0  0  0  0  0  0  0  0  0
   51.8000   50.1640   19.9450 N   0  0  0  0  0  0  0  0  0  0  0  0
   51.4780   50.8820   19.2860 H   0  0  0  0  0  0  0  0  0  0  0  0
   50.8040   49.0720   19.9900 C   0  0  0  0  0  0  0  0  0  0  0  0
   49.7230   49.3590   18.9790 C   0  0  0  0  0  0  0  0  0  0  0  0
   49.2340   48.3620   18.2140 N   0  0  0  0  0  0  0  0  0  0  0  0
   49.5790   47.4600   18.3130 H   0  0  0  0  0  0  0  0  0  0  0  0
   49.2920   50.4850   18.8550 O   0  0  0  0  0  0  0  0  0  0  0  0
   48.1790   48.6390   17.2370 C   0  0  0  0  0  0  0  0  0  0  0  0
   46.9500   49.1970   17.9580 C   0  0  0  0  0  0  0  0  0  0  0  0
   45.8480   49.4870   16.9370 C   0  0  0  0  0  0  0  0  0  0  0  0
   45.4700   48.1930   16.2130 C   0  0  0  0  0  0  0  0  0  0  0  0
   46.6990   47.6350   15.4920 C   0  0  0  0  0  0  0  0  0  0  0  0
   47.8020   47.3440   16.5130 C   0  0  0  0  0  0  0  0  0  0  0  0
   48.6640   49.6250   16.2580 C   0  0  0  0  0  0  0  0  0  0  0  0
   49.0380   50.3860   15.5010 N   0  0  0  0  0  0  0  0  0  0  0  0
   51.9440   50.7700   21.2850 C   0  0  0  0  0  0  0  0  0  0  0  0
   51.1660   52.0600   21.3200 C   0  0  0  0  0  0  0  0  0  0  0  0
   51.0930   52.8330   20.2180 N   0  0  0  0  0  0  0  0  0  0  0  0
   51.6030   52.5980   19.4260 H   0  0  0  0  0  0  0  0  0  0  0  0
   50.6060   52.4040   22.3400 O   0  0  0  0  0  0  0  0  0  0  0  0
   50.2810   53.9730   20.2150 C   0  0  0  0  0  0  0  0  0  0  0  0
   49.0970   53.9820   19.4900 C   0  0  0  0  0  0  0  0  0  0  0  0
   48.2950   55.1070   19.4930 C   0  0  0  0  0  0  0  0  0  0  0  0
   48.6770   56.2280   20.2090 C   0  0  0  0  0  0  0  0  0  0  0  0
   47.6700   57.6420   20.2060 Cl  0  0  0  0  0  0  0  0  0  0  0  0
   49.8590   56.2230   20.9280 C   0  0  0  0  0  0  0  0  0  0  0  0
   50.6610   55.1000   20.9330 C   0  0  0  0  0  0  0  0  0  0  0  0
   50.2710   57.4460   21.7080 C   0  0  0  0  0  0  0  0  0  0  0  0
   50.7920   58.4030   20.8310 F   0  0  0  0  0  0  0  0  0  0  0  0
   51.2460   57.0930   22.6460 F   0  0  0  0  0  0  0  0  0  0  0  0
   49.1570   57.9750   22.3670 F   0  0  0  0  0  0  0  0  0  0  0  0
  1  2  1  0  0  0  0
  2  4  1  0  0  0  0
  2 17  1  0  0  0  0
  3  2  1  0  0  0  0
  5  4  1  0  0  0  0
  6  7  1  0  0  0  0
  6  5  1  0  0  0  0
  8  5  2  0  0  0  0
  9 10  1  0  0  0  0
  9  6  1  0  0  0  0
 11 10  1  0  0  0  0
 12 11  1  0  0  0  0
 13 12  1  0  0  0  0
 13 14  1  0  0  0  0
 14  9  1  0  0  0  0
 15  9  1  0  0  0  0
 16 15  3  0  0  0  0
 17 18  1  0  0  0  0
 18 21  2  0  0  0  0
 19 18  1  0  0  0  0
 20 19  1  0  0  0  0
 22 19  1  0  0  0  0
 22 28  2  0  0  0  0
 23 24  2  0  0  0  0
 23 22  1  0  0  0  0
 24 25  1  0  0  0  0
 25 27  2  0  0  0  0
 26 25  1  0  0  0  0
 27 28  1  0  0  0  0
 27 29  1  0  0  0  0
 29 32  1  0  0  0  0
 29 31  1  0  0  0  0
 30 29  1  0  0  0  0
M  END
>  <MODEL>
2

>  <REMARK>
  Name = ZINC12918200
                            x       y       z     vdW  Elec       q    Type
                         _______ _______ _______ _____ _____    ______ ____

>  <TORSDO>
F 8

>  <minimizedAffinity>
-8.9234354825053899

$$$$
ZINC12918200
 OpenBabel10211213513D

 32 33  0  0  0  0  0  0  0  0999 V2000
   52.5720   51.0990   18.2810 C   0  0  0  0  0  0  0  0  0  0  0  0
   51.5940   50.9360   19.3770 N   0  0  0  0  0  0  0  0  0  0  0  0
   50.7870   51.5440   19.1960 H   0  0  0  0  0  0  0  0  0  0  0  0
   51.1330   49.5320   19.4380 C   0  0  0  0  0  0  0  0  0  0  0  0
   49.7630   49.4430   18.8170 C   0  0  0  0  0  0  0  0  0  0  0  0
   49.3110   48.2630   18.3480 N   0  0  0  0  0  0  0  0  0  0  0  0
   49.8690   47.4710   18.4080 H   0  0  0  0  0  0  0  0  0  0  0  0
   49.0660   50.4320   18.7410 O   0  0  0  0  0  0  0  0  0  0  0  0
   47.9770   48.1750   17.7500 C   0  0  0  0  0  0  0  0  0  0  0  0
   47.7970   49.3060   16.7360 C   0  0  0  0  0  0  0  0  0  0  0  0
   46.4040   49.2140   16.1110 C   0  0  0  0  0  0  0  0  0  0  0  0
   45.3430   49.3390   17.2080 C   0  0  0  0  0  0  0  0  0  0  0  0
   45.5240   48.2080   18.2220 C   0  0  0  0  0  0  0  0  0  0  0  0
   46.9170   48.3000   18.8470 C   0  0  0  0  0  0  0  0  0  0  0  0
   47.8280   46.8780   17.0710 C   0  0  0  0  0  0  0  0  0  0  0  0
   47.7130   45.8760   16.5470 N   0  0  0  0  0  0  0  0  0  0  0  0
   52.2090   51.3220   20.6640 C   0  0  0  0  0  0  0  0  0  0  0  0
   51.5540   52.5880   21.1540 C   0  0  0  0  0  0  0  0  0  0  0  0
   51.8920   53.7740   20.6110 N   0  0  0  0  0  0  0  0  0  0  0  0
   52.6100   53.8230   19.9610 H   0  0  0  0  0  0  0  0  0  0  0  0
   50.7230   52.5390   22.0360 O   0  0  0  0  0  0  0  0  0  0  0  0
   51.2060   54.9360   20.9860 C   0  0  0  0  0  0  0  0  0  0  0  0
   51.6150   55.6560   22.1010 C   0  0  0  0  0  0  0  0  0  0  0  0
   50.9410   56.8040   22.4660 C   0  0  0  0  0  0  0  0  0  0  0  0
   49.8500   57.2310   21.7280 C   0  0  0  0  0  0  0  0  0  0  0  0
   49.0010   58.6720   22.1920 Cl  0  0  0  0  0  0  0  0  0  0  0  0
   49.4380   56.5130   20.6190 C   0  0  0  0  0  0  0  0  0  0  0  0
   50.1120   55.3670   20.2480 C   0  0  0  0  0  0  0  0  0  0  0  0
   48.2510   56.9820   19.8180 C   0  0  0  0  0  0  0  0  0  0  0  0
   48.0420   56.1120   18.7420 F   0  0  0  0  0  0  0  0  0  0  0  0
   48.4960   58.2710   19.3340 F   0  0  0  0  0  0  0  0  0  0  0  0
   47.1150   56.9960   20.6330 F   0  0  0  0  0  0  0  0  0  0  0  0
  1  2  1  0  0  0  0
  2  4  1  0  0  0  0
  2 17  1  0  0  0  0
  3  2  1  0  0  0  0
  5  4  1  0  0  0  0
  6  7  1  0  0  0  0
  6  5  1  0  0  0  0
  8  5  2  0  0  0  0
  9  6  1  0  0  0  0
  9 14  1  0  0  0  0
 10  9  1  0  0  0  0
 11 10  1  0  0  0  0
 11 12  1  0  0  0  0
 12 13  1  0  0  0  0
 13 14  1  0  0  0  0
 15  9  1  0  0  0  0
 16 15  3  0  0  0  0
 17 18  1  0  0  0  0
 18 21  2  0  0  0  0
 19 22  1  0  0  0  0
 19 18  1  0  0  0  0
 20 19  1  0  0  0  0
 22 23  2  0  0  0  0
 23 24  1  0  0  0  0
 25 26  1  0  0  0  0
 25 24  2  0  0  0  0
 27 25  1  0  0  0  0
 28 27  2  0  0  0  0
 28 22  1  0  0  0  0
 29 27  1  0  0  0  0
 29 32  1  0  0  0  0
 30 29  1  0  0  0  0
 31 29  1  0  0  0  0
M  END
>  <MODEL>
3

>  <REMARK>
  Name = ZINC12918200
                            x       y       z     vdW  Elec       q    Type
                         _______ _______ _______ _____ _____    ______ ____

>  <TORSDO>
F 8

>  <minimizedAffinity>
-8.8085449412436443

$$$$
ZINC12918200
 OpenBabel10211213513D

 32 33  0  0  0  0  0  0  0  0999 V2000
   50.7770   49.8510   21.3550 C   0  0  0  0  0  0  0  0  0  0  0  0
   50.8940   51.1770   20.7150 N   0  0  0  0  0  0  0  0  0  0  0  0
   49.9710   51.6270   20.7100 H   0  0  0  0  0  0  0  0  0  0  0  0
   51.8360   52.0250   21.4760 C   0  0  0  0  0  0  0  0  0  0  0  0
   51.5310   53.4720   21.1850 C   0  0  0  0  0  0  0  0  0  0  0  0
   50.3060   53.8280   20.7490 N   0  0  0  0  0  0  0  0  0  0  0  0
   49.6220   53.1520   20.6200 H   0  0  0  0  0  0  0  0  0  0  0  0
   52.3860   54.3170   21.3460 O   0  0  0  0  0  0  0  0  0  0  0  0
   50.0070   55.2350   20.4720 C   0  0  0  0  0  0  0  0  0  0  0  0
   50.2350   56.0620   21.7390 C   0  0  0  0  0  0  0  0  0  0  0  0
   49.9230   57.5320   21.4510 C   0  0  0  0  0  0  0  0  0  0  0  0
   48.4640   57.6670   21.0090 C   0  0  0  0  0  0  0  0  0  0  0  0
   48.2370   56.8390   19.7430 C   0  0  0  0  0  0  0  0  0  0  0  0
   48.5480   55.3690   20.0310 C   0  0  0  0  0  0  0  0  0  0  0  0
   50.8900   55.7230   19.4020 C   0  0  0  0  0  0  0  0  0  0  0  0
   51.5730   56.1000   18.5750 N   0  0  0  0  0  0  0  0  0  0  0  0
   51.3630   51.0260   19.3210 C   0  0  0  0  0  0  0  0  0  0  0  0
   50.1790   50.7210   18.4410 C   0  0  0  0  0  0  0  0  0  0  0  0
   50.0110   49.4790   17.9450 N   0  0  0  0  0  0  0  0  0  0  0  0
   50.6910   48.8030   18.0900 H   0  0  0  0  0  0  0  0  0  0  0  0
   49.3770   51.5930   18.1780 O   0  0  0  0  0  0  0  0  0  0  0  0
   48.8550   49.1660   17.2190 C   0  0  0  0  0  0  0  0  0  0  0  0
   48.8410   49.3070   15.8380 C   0  0  0  0  0  0  0  0  0  0  0  0
   47.7010   48.9920   15.1240 C   0  0  0  0  0  0  0  0  0  0  0  0
   46.5700   48.5490   15.7860 C   0  0  0  0  0  0  0  0  0  0  0  0
   45.1370   48.1600   14.8870 Cl  0  0  0  0  0  0  0  0  0  0  0  0
   46.5790   48.4130   17.1630 C   0  0  0  0  0  0  0  0  0  0  0  0
   47.7180   48.7210   17.8810 C   0  0  0  0  0  0  0  0  0  0  0  0
   45.3450   47.9280   17.8810 C   0  0  0  0  0  0  0  0  0  0  0  0
   44.3080   48.8480   17.6970 F   0  0  0  0  0  0  0  0  0  0  0  0
   45.6200   47.8020   19.2460 F   0  0  0  0  0  0  0  0  0  0  0  0
   44.9640   46.6860   17.3640 F   0  0  0  0  0  0  0  0  0  0  0  0
  2  1  1  0  0  0  0
  2  4  1  0  0  0  0
  3  2  1  0  0  0  0
  5  8  2  0  0  0  0
  5  4  1  0  0  0  0
  6  5  1  0  0  0  0
  7  6  1  0  0  0  0
  9  6  1  0  0  0  0
  9 10  1  0  0  0  0
 11 10  1  0  0  0  0
 12 11  1  0  0  0  0
 13 14  1  0  0  0  0
 13 12  1  0  0  0  0
 14  9  1  0  0  0  0
 15  9  1  0  0  0  0
 16 15  3  0  0  0  0
 17  2  1  0  0  0  0
 18 17  1  0  0  0  0
 19 20  1  0  0  0  0
 19 18  1  0  0  0  0
 21 18  2  0  0  0  0
 22 28  1  0  0  0  0
 22 19  1  0  0  0  0
 23 22  2  0  0  0  0
 24 25  2  0  0  0  0
 24 23  1  0  0  0  0
 25 27  1  0  0  0  0
 26 25  1  0  0  0  0
 27 29  1  0  0  0  0
 27 28  2  0  0  0  0
 29 31  1  0  0  0  0
 30 29  1  0  0  0  0
 32 29  1  0  0  0  0
M  END
>  <MODEL>
4

>  <REMARK>
  Name = ZINC12918200
                            x       y       z     vdW  Elec       q    Type
                         _______ _______ _______ _____ _____    ______ ____

>  <TORSDO>
F 8

>  <minimizedAffinity>
-8.7668323917135282

$$$$
ZINC12918200
 OpenBabel10211213513D

 32 33  0  0  0  0  0  0  0  0999 V2000
   50.8420   48.4140   20.5960 C   0  0  0  0  0  0  0  0  0  0  0  0
   51.1850   49.2780   19.4470 N   0  0  0  0  0  0  0  0  0  0  0  0
   51.3640   48.6860   18.6270 H   0  0  0  0  0  0  0  0  0  0  0  0
   50.0590   50.1880   19.1450 C   0  0  0  0  0  0  0  0  0  0  0  0
   49.0660   49.4600   18.2750 C   0  0  0  0  0  0  0  0  0  0  0  0
   47.9080   49.0150   18.8030 N   0  0  0  0  0  0  0  0  0  0  0  0
   47.7150   49.1620   19.7430 H   0  0  0  0  0  0  0  0  0  0  0  0
   49.3070   49.2750   17.1020 O   0  0  0  0  0  0  0  0  0  0  0  0
   46.9400   48.3130   17.9580 C   0  0  0  0  0  0  0  0  0  0  0  0
   47.6620   47.2420   17.1380 C   0  0  0  0  0  0  0  0  0  0  0  0
   46.6510   46.5080   16.2540 C   0  0  0  0  0  0  0  0  0  0  0  0
   45.9790   47.5070   15.3100 C   0  0  0  0  0  0  0  0  0  0  0  0
   45.2580   48.5780   16.1300 C   0  0  0  0  0  0  0  0  0  0  0  0
   46.2690   49.3120   17.0130 C   0  0  0  0  0  0  0  0  0  0  0  0
   45.9190   47.6770   18.8050 C   0  0  0  0  0  0  0  0  0  0  0  0
   45.1290   47.1850   19.4580 N   0  0  0  0  0  0  0  0  0  0  0  0
   52.4010   50.0620   19.7490 C   0  0  0  0  0  0  0  0  0  0  0  0
   52.0180   51.5120   19.8970 C   0  0  0  0  0  0  0  0  0  0  0  0
   51.3060   51.9160   20.9680 N   0  0  0  0  0  0  0  0  0  0  0  0
   50.9730   51.2620   21.6030 H   0  0  0  0  0  0  0  0  0  0  0  0
   52.3520   52.3180   19.0530 O   0  0  0  0  0  0  0  0  0  0  0  0
   51.0460   53.2770   21.1640 C   0  0  0  0  0  0  0  0  0  0  0  0
   51.7810   53.9990   22.0950 C   0  0  0  0  0  0  0  0  0  0  0  0
   51.5260   55.3440   22.2820 C   0  0  0  0  0  0  0  0  0  0  0  0
   50.5300   55.9680   21.5510 C   0  0  0  0  0  0  0  0  0  0  0  0
   50.2080   57.6570   21.7930 Cl  0  0  0  0  0  0  0  0  0  0  0  0
   49.7930   55.2500   20.6260 C   0  0  0  0  0  0  0  0  0  0  0  0
   50.0480   53.9070   20.4310 C   0  0  0  0  0  0  0  0  0  0  0  0
   48.7110   55.9340   19.8310 C   0  0  0  0  0  0  0  0  0  0  0  0
   49.2940   56.7760   18.8780 F   0  0  0  0  0  0  0  0  0  0  0  0
   47.9070   56.6880   20.6920 F   0  0  0  0  0  0  0  0  0  0  0  0
   47.9280   54.9710   19.1850 F   0  0  0  0  0  0  0  0  0  0  0  0
  2 17  1  0  0  0  0
  2  1  1  0  0  0  0
  3  2  1  0  0  0  0
  4  2  1  0  0  0  0
  5  6  1  0  0  0  0
  5  4  1  0  0  0  0
  6  7  1  0  0  0  0
  8  5  2  0  0  0  0
  9  6  1  0  0  0  0
  9 15  1  0  0  0  0
 10  9  1  0  0  0  0
 11 10  1  0  0  0  0
 12 13  1  0  0  0  0
 12 11  1  0  0  0  0
 13 14  1  0  0  0  0
 14  9  1  0  0  0  0
 15 16  3  0  0  0  0
 17 18  1  0  0  0  0
 18 19  1  0  0  0  0
 19 22  1  0  0  0  0
 19 20  1  0  0  0  0
 21 18  2  0  0  0  0
 22 23  2  0  0  0  0
 23 24  1  0  0  0  0
 25 26  1  0  0  0  0
 25 24  2  0  0  0  0
 27 25  1  0  0  0  0
 28 27  2  0  0  0  0
 28 22  1  0  0  0  0
 29 27  1  0  0  0  0
 29 31  1  0  0  0  0
 30 29  1  0  0  0  0
 32 29  1  0  0  0  0
M  END
>  <MODEL>
5

>  <REMARK>
  Name = ZINC12918200
                            x       y       z     vdW  Elec       q    Type
                         _______ _______ _______ _____ _____    ______ ____

>  <TORSDO>
F 8

>  <minimizedAffinity>
-8.3921879705816185

$$$$
ZINC12918200
 OpenBabel10211213513D

 32 33  0  0  0  0  0  0  0  0999 V2000
   52.9430   49.5980   19.6120 C   0  0  0  0  0  0  0  0  0  0  0  0
   51.8720   50.5020   20.0800 N   0  0  0  0  0  0  0  0  0  0  0  0
   51.0130   49.9570   20.2180 H   0  0  0  0  0  0  0  0  0  0  0  0
   52.2580   51.1220   21.3650 C   0  0  0  0  0  0  0  0  0  0  0  0
   51.6390   52.4940   21.4490 C   0  0  0  0  0  0  0  0  0  0  0  0
   52.2440   53.5440   20.8570 N   0  0  0  0  0  0  0  0  0  0  0  0
   53.0790   53.4160   20.3790 H   0  0  0  0  0  0  0  0  0  0  0  0
   50.5960   52.6530   22.0460 O   0  0  0  0  0  0  0  0  0  0  0  0
   51.6390   54.8750   20.9330 C   0  0  0  0  0  0  0  0  0  0  0  0
   52.4810   55.8640   20.1230 C   0  0  0  0  0  0  0  0  0  0  0  0
   51.8490   57.2550   20.2020 C   0  0  0  0  0  0  0  0  0  0  0  0
   51.7940   57.7090   21.6620 C   0  0  0  0  0  0  0  0  0  0  0  0
   50.9520   56.7200   22.4710 C   0  0  0  0  0  0  0  0  0  0  0  0
   51.5840   55.3280   22.3930 C   0  0  0  0  0  0  0  0  0  0  0  0
   50.2750   54.8270   20.3830 C   0  0  0  0  0  0  0  0  0  0  0  0
   49.2220   54.7900   19.9570 N   0  0  0  0  0  0  0  0  0  0  0  0
   51.6190   51.5510   19.0700 C   0  0  0  0  0  0  0  0  0  0  0  0
   50.4010   51.1690   18.2680 C   0  0  0  0  0  0  0  0  0  0  0  0
   50.2440   49.8990   17.8450 N   0  0  0  0  0  0  0  0  0  0  0  0
   50.9500   49.2490   17.9890 H   0  0  0  0  0  0  0  0  0  0  0  0
   49.5620   52.0040   18.0040 O   0  0  0  0  0  0  0  0  0  0  0  0
   49.0630   49.5180   17.1980 C   0  0  0  0  0  0  0  0  0  0  0  0
   48.9390   49.6790   15.8240 C   0  0  0  0  0  0  0  0  0  0  0  0
   47.7740   49.2980   15.1870 C   0  0  0  0  0  0  0  0  0  0  0  0
   46.7270   48.7660   15.9190 C   0  0  0  0  0  0  0  0  0  0  0  0
   45.2620   48.2930   15.1160 Cl  0  0  0  0  0  0  0  0  0  0  0  0
   46.8460   48.6090   17.2890 C   0  0  0  0  0  0  0  0  0  0  0  0
   48.0100   48.9840   17.9290 C   0  0  0  0  0  0  0  0  0  0  0  0
   45.7030   48.0280   18.0820 C   0  0  0  0  0  0  0  0  0  0  0  0
   46.0740   47.9260   19.4260 F   0  0  0  0  0  0  0  0  0  0  0  0
   45.3900   46.7580   17.5860 F   0  0  0  0  0  0  0  0  0  0  0  0
   44.5860   48.8620   17.9680 F   0  0  0  0  0  0  0  0  0  0  0  0
  1  2  1  0  0  0  0
  2  3  1  0  0  0  0
  2  4  1  0  0  0  0
  4  5  1  0  0  0  0
  5  8  2  0  0  0  0
  6  9  1  0  0  0  0
  6  5  1  0  0  0  0
  7  6  1  0  0  0  0
  9 14  1  0  0  0  0
 10 11  1  0  0  0  0
 10  9  1  0  0  0  0
 11 12  1  0  0  0  0
 12 13  1  0  0  0  0
 14 13  1  0  0  0  0
 15  9  1  0  0  0  0
 16 15  3  0  0  0  0
 17  2  1  0  0  0  0
 18 17  1  0  0  0  0
 19 20  1  0  0  0  0
 19 18  1  0  0  0  0
 21 18  2  0  0  0  0
 22 19  1  0  0  0  0
 22 28  2  0  0  0  0
 23 22  1  0  0  0  0
 24 23  2  0  0  0  0
 24 25  1  0  0  0  0
 25 27  2  0  0  0  0
 26 25  1  0  0  0  0
 27 28  1  0  0  0  0
 27 29  1  0  0  0  0
 29 30  1  0  0  0  0
 31 29  1  0  0  0  0
 32 29  1  0  0  0  0
M  END
>  <MODEL>
6

>  <REMARK>
  Name = ZINC12918200
                            x       y       z     vdW  Elec       q    Type
                         _______ _______ _______ _____ _____    ______ ____

>  <TORSDO>
F 8

>  <minimizedAffinity>
-8.3302240637504266

$$$$
ZINC12918200
 OpenBabel10211213513D

 32 33  0  0  0  0  0  0  0  0999 V2000
   50.7670   48.7250   20.3880 C   0  0  0  0  0  0  0  0  0  0  0  0
   51.0000   49.4840   19.1420 N   0  0  0  0  0  0  0  0  0  0  0  0
   51.1460   48.8200   18.3710 H   0  0  0  0  0  0  0  0  0  0  0  0
   49.8230   50.3240   18.8340 C   0  0  0  0  0  0  0  0  0  0  0  0
   48.8370   49.5060   18.0400 C   0  0  0  0  0  0  0  0  0  0  0  0
   47.7190   49.0400   18.6310 N   0  0  0  0  0  0  0  0  0  0  0  0
   47.5500   49.2280   19.5680 H   0  0  0  0  0  0  0  0  0  0  0  0
   49.0470   49.2700   16.8700 O   0  0  0  0  0  0  0  0  0  0  0  0
   46.7570   48.2510   17.8590 C   0  0  0  0  0  0  0  0  0  0  0  0
   47.4990   47.1690   17.0720 C   0  0  0  0  0  0  0  0  0  0  0  0
   46.4950   46.3450   16.2650 C   0  0  0  0  0  0  0  0  0  0  0  0
   45.7470   47.2600   15.2930 C   0  0  0  0  0  0  0  0  0  0  0  0
   45.0050   48.3410   16.0800 C   0  0  0  0  0  0  0  0  0  0  0  0
   46.0090   49.1670   16.8870 C   0  0  0  0  0  0  0  0  0  0  0  0
   45.7940   47.6170   18.7740 C   0  0  0  0  0  0  0  0  0  0  0  0
   45.0510   47.1280   19.4810 N   0  0  0  0  0  0  0  0  0  0  0  0
   52.2030   50.3310   19.2830 C   0  0  0  0  0  0  0  0  0  0  0  0
   51.8040   51.6380   19.9170 C   0  0  0  0  0  0  0  0  0  0  0  0
   51.6810   52.7450   19.1590 N   0  0  0  0  0  0  0  0  0  0  0  0
   51.9240   52.7200   18.2200 H   0  0  0  0  0  0  0  0  0  0  0  0
   51.5920   51.6940   21.1110 O   0  0  0  0  0  0  0  0  0  0  0  0
   51.2040   53.9330   19.7270 C   0  0  0  0  0  0  0  0  0  0  0  0
   49.8410   54.1120   19.9220 C   0  0  0  0  0  0  0  0  0  0  0  0
   49.3720   55.2820   20.4870 C   0  0  0  0  0  0  0  0  0  0  0  0
   50.2600   56.2810   20.8470 C   0  0  0  0  0  0  0  0  0  0  0  0
   49.6690   57.7530   21.5510 Cl  0  0  0  0  0  0  0  0  0  0  0  0
   51.6190   56.1070   20.6480 C   0  0  0  0  0  0  0  0  0  0  0  0
   52.0920   54.9370   20.0890 C   0  0  0  0  0  0  0  0  0  0  0  0
   52.5830   57.1970   21.0430 C   0  0  0  0  0  0  0  0  0  0  0  0
   52.6320   57.2940   22.4370 F   0  0  0  0  0  0  0  0  0  0  0  0
   52.1540   58.4150   20.5050 F   0  0  0  0  0  0  0  0  0  0  0  0
   53.8560   56.8920   20.5520 F   0  0  0  0  0  0  0  0  0  0  0  0
  2 17  1  0  0  0  0
  2  1  1  0  0  0  0
  3  2  1  0  0  0  0
  4  2  1  0  0  0  0
  5  6  1  0  0  0  0
  5  4  1  0  0  0  0
  6  7  1  0  0  0  0
  8  5  2  0  0  0  0
  9  6  1  0  0  0  0
  9 15  1  0  0  0  0
 10  9  1  0  0  0  0
 11 10  1  0  0  0  0
 12 13  1  0  0  0  0
 12 11  1  0  0  0  0
 13 14  1  0  0  0  0
 14  9  1  0  0  0  0
 15 16  3  0  0  0  0
 17 18  1  0  0  0  0
 18 21  2  0  0  0  0
 19 22  1  0  0  0  0
 19 18  1  0  0  0  0
 20 19  1  0  0  0  0
 22 23  2  0  0  0  0
 22 28  1  0  0  0  0
 23 24  1  0  0  0  0
 24 25  2  0  0  0  0
 25 26  1  0  0  0  0
 27 25  1  0  0  0  0
 27 29  1  0  0  0  0
 28 27  2  0  0  0  0
 29 30  1  0  0  0  0
 31 29  1  0  0  0  0
 32 29  1  0  0  0  0
M  END
>  <MODEL>
7

>  <REMARK>
  Name = ZINC12918200
                            x       y       z     vdW  Elec       q    Type
                         _______ _______ _______ _____ _____    ______ ____

>  <TORSDO>
F 8

>  <minimizedAffinity>
-8.1976986819103992

$$$$
ZINC12918200
 OpenBabel10211213513D

 32 33  0  0  0  0  0  0  0  0999 V2000
   52.0500   58.1980   21.5820 C   0  0  0  0  0  0  0  0  0  0  0  0
   51.3090   56.9590   21.2650 N   0  0  0  0  0  0  0  0  0  0  0  0
   51.1630   56.9090   20.2500 H   0  0  0  0  0  0  0  0  0  0  0  0
   52.0880   55.7790   21.6960 C   0  0  0  0  0  0  0  0  0  0  0  0
   51.8380   54.6510   20.7280 C   0  0  0  0  0  0  0  0  0  0  0  0
   52.1780   53.3900   21.0610 N   0  0  0  0  0  0  0  0  0  0  0  0
   52.5850   53.2080   21.9230 H   0  0  0  0  0  0  0  0  0  0  0  0
   51.3300   54.8780   19.6510 O   0  0  0  0  0  0  0  0  0  0  0  0
   51.9290   52.2930   20.1240 C   0  0  0  0  0  0  0  0  0  0  0  0
   50.4310   52.2030   19.8300 C   0  0  0  0  0  0  0  0  0  0  0  0
   50.1700   51.0570   18.8500 C   0  0  0  0  0  0  0  0  0  0  0  0
   50.6490   49.7410   19.4660 C   0  0  0  0  0  0  0  0  0  0  0  0
   52.1470   49.8300   19.7600 C   0  0  0  0  0  0  0  0  0  0  0  0
   52.4080   50.9760   20.7400 C   0  0  0  0  0  0  0  0  0  0  0  0
   52.6610   52.5420   18.8710 C   0  0  0  0  0  0  0  0  0  0  0  0
   53.2260   52.7340   17.9040 N   0  0  0  0  0  0  0  0  0  0  0  0
   49.9940   56.9700   21.9410 C   0  0  0  0  0  0  0  0  0  0  0  0
   49.0390   57.8060   21.1290 C   0  0  0  0  0  0  0  0  0  0  0  0
   49.1470   57.8400   19.7860 N   0  0  0  0  0  0  0  0  0  0  0  0
   49.8860   57.3890   19.3470 H   0  0  0  0  0  0  0  0  0  0  0  0
   48.1710   58.4480   21.6840 O   0  0  0  0  0  0  0  0  0  0  0  0
   48.1930   58.5250   19.0240 C   0  0  0  0  0  0  0  0  0  0  0  0
   47.6920   57.9560   17.8610 C   0  0  0  0  0  0  0  0  0  0  0  0
   46.7470   58.6320   17.1140 C   0  0  0  0  0  0  0  0  0  0  0  0
   46.3090   59.8820   17.5170 C   0  0  0  0  0  0  0  0  0  0  0  0
   45.1270   60.7320   16.5730 Cl  0  0  0  0  0  0  0  0  0  0  0  0
   46.8110   60.4530   18.6740 C   0  0  0  0  0  0  0  0  0  0  0  0
   47.7520   59.7790   19.4270 C   0  0  0  0  0  0  0  0  0  0  0  0
   46.3310   61.8140   19.1110 C   0  0  0  0  0  0  0  0  0  0  0  0
   46.4740   62.7200   18.0550 F   0  0  0  0  0  0  0  0  0  0  0  0
   47.0910   62.2470   20.2030 F   0  0  0  0  0  0  0  0  0  0  0  0
   44.9850   61.7360   19.4800 F   0  0  0  0  0  0  0  0  0  0  0  0
  2  1  1  0  0  0  0
  2  4  1  0  0  0  0
  2 17  1  0  0  0  0
  3  2  1  0  0  0  0
  5  6  1  0  0  0  0
  5  4  1  0  0  0  0
  6  7  1  0  0  0  0
  8  5  2  0  0  0  0
  9 14  1  0  0  0  0
  9  6  1  0  0  0  0
 10  9  1  0  0  0  0
 11 12  1  0  0  0  0
 11 10  1  0  0  0  0
 12 13  1  0  0  0  0
 13 14  1  0  0  0  0
 15  9  1  0  0  0  0
 16 15  3  0  0  0  0
 18 21  2  0  0  0  0
 18 17  1  0  0  0  0
 19 18  1  0  0  0  0
 20 19  1  0  0  0  0
 22 28  1  0  0  0  0
 22 19  1  0  0  0  0
 23 22  2  0  0  0  0
 24 25  2  0  0  0  0
 24 23  1  0  0  0  0
 25 27  1  0  0  0  0
 26 25  1  0  0  0  0
 27 29  1  0  0  0  0
 27 28  2  0  0  0  0
 29 32  1  0  0  0  0
 29 31  1  0  0  0  0
 30 29  1  0  0  0  0
M  END
>  <MODEL>
8

>  <REMARK>
  Name = ZINC12918200
                            x       y       z     vdW  Elec       q    Type
                         _______ _______ _______ _____ _____    ______ ____

>  <TORSDO>
F 8

>  <minimizedAffinity>
-7.6088136032288975

$$$$
ZINC12918200
 OpenBabel10211213513D

 32 33  0  0  0  0  0  0  0  0999 V2000
   51.0050   50.5130   20.9810 C   0  0  0  0  0  0  0  0  0  0  0  0
   50.3060   50.5920   19.6820 N   0  0  0  0  0  0  0  0  0  0  0  0
   49.3920   51.0370   19.8220 H   0  0  0  0  0  0  0  0  0  0  0  0
   51.0950   51.4060   18.7320 C   0  0  0  0  0  0  0  0  0  0  0  0
   51.4310   52.7220   19.3840 C   0  0  0  0  0  0  0  0  0  0  0  0
   50.4440   53.5570   19.7660 N   0  0  0  0  0  0  0  0  0  0  0  0
   49.5170   53.3110   19.6200 H   0  0  0  0  0  0  0  0  0  0  0  0
   52.5890   53.0310   19.5670 O   0  0  0  0  0  0  0  0  0  0  0  0
   50.7700   54.8330   20.4060 C   0  0  0  0  0  0  0  0  0  0  0  0
   49.4900   55.6500   20.5960 C   0  0  0  0  0  0  0  0  0  0  0  0
   49.8310   56.9840   21.2640 C   0  0  0  0  0  0  0  0  0  0  0  0
   50.8060   57.7630   20.3790 C   0  0  0  0  0  0  0  0  0  0  0  0
   52.0860   56.9460   20.1890 C   0  0  0  0  0  0  0  0  0  0  0  0
   51.7460   55.6120   19.5200 C   0  0  0  0  0  0  0  0  0  0  0  0
   51.3910   54.5820   21.7160 C   0  0  0  0  0  0  0  0  0  0  0  0
   51.8710   54.3870   22.7280 N   0  0  0  0  0  0  0  0  0  0  0  0
   50.1020   49.2340   19.1340 C   0  0  0  0  0  0  0  0  0  0  0  0
   49.1360   49.3170   17.9800 C   0  0  0  0  0  0  0  0  0  0  0  0
   49.3970   48.6550   16.8350 N   0  0  0  0  0  0  0  0  0  0  0  0
   50.2410   48.1900   16.7250 H   0  0  0  0  0  0  0  0  0  0  0  0
   48.1240   49.9780   18.0810 O   0  0  0  0  0  0  0  0  0  0  0  0
   48.4500   48.6410   15.8040 C   0  0  0  0  0  0  0  0  0  0  0  0
   48.6010   49.4810   14.7090 C   0  0  0  0  0  0  0  0  0  0  0  0
   47.6680   49.4610   13.6900 C   0  0  0  0  0  0  0  0  0  0  0  0
   46.5770   48.6120   13.7670 C   0  0  0  0  0  0  0  0  0  0  0  0
   45.4030   48.5930   12.4890 Cl  0  0  0  0  0  0  0  0  0  0  0  0
   46.4220   47.7770   14.8600 C   0  0  0  0  0  0  0  0  0  0  0  0
   47.3550   47.7900   15.8780 C   0  0  0  0  0  0  0  0  0  0  0  0
   45.2340   46.8540   14.9390 C   0  0  0  0  0  0  0  0  0  0  0  0
   45.2390   45.9910   13.8380 F   0  0  0  0  0  0  0  0  0  0  0  0
   44.0560   47.6090   14.9350 F   0  0  0  0  0  0  0  0  0  0  0  0
   45.3040   46.1040   16.1180 F   0  0  0  0  0  0  0  0  0  0  0  0
  2  3  1  0  0  0  0
  2  1  1  0  0  0  0
  4  5  1  0  0  0  0
  4  2  1  0  0  0  0
  5  8  2  0  0  0  0
  5  6  1  0  0  0  0
  6  9  1  0  0  0  0
  7  6  1  0  0  0  0
  9 10  1  0  0  0  0
  9 15  1  0  0  0  0
 10 11  1  0  0  0  0
 12 11  1  0  0  0  0
 13 12  1  0  0  0  0
 14 13  1  0  0  0  0
 14  9  1  0  0  0  0
 15 16  3  0  0  0  0
 17  2  1  0  0  0  0
 18 21  2  0  0  0  0
 18 17  1  0  0  0  0
 19 18  1  0  0  0  0
 20 19  1  0  0  0  0
 22 28  1  0  0  0  0
 22 19  1  0  0  0  0
 23 22  2  0  0  0  0
 24 25  2  0  0  0  0
 24 23  1  0  0  0  0
 25 27  1  0  0  0  0
 26 25  1  0  0  0  0
 27 29  1  0  0  0  0
 27 28  2  0  0  0  0
 29 32  1  0  0  0  0
 30 29  1  0  0  0  0
 31 29  1  0  0  0  0
M  END
>  <MODEL>
9

>  <REMARK>
  Name = ZINC12918200
                            x       y       z     vdW  Elec       q    Type
                         _______ _______ _______ _____ _____    ______ ____

>  <TORSDO>
F 8

>  <minimizedAffinity>
-7.6072165897092621

$$$$
ZINC63110755
 OpenBabel10211213533D

 36 40  0  0  1  0  0  0  0  0999 V2000
   49.3760   50.3950   17.8130 C   0  0  0  0  0  0  0  0  0  0  0  0
   50.0250   51.4760   18.3870 C   0  0  0  0  0  0  0  0  0  0  0  0
   50.9730   51.4580   19.5110 C   0  0  0  0  0  0  0  0  0  0  0  0
   51.3430   52.6820   19.7300 N   0  0  0  0  0  0  0  0  0  0  0  0
   50.7260   53.5660   18.8450 N   0  0  0  0  0  0  0  0  0  0  0  0
   49.9200   52.8890   18.0030 C   0  0  0  0  0  0  0  0  0  0  0  0
   49.2380   53.3560   17.1040 O   0  0  0  0  0  0  0  0  0  0  0  0
   50.9300   55.0160   18.8280 C   0  0  1  0  0  0  0  0  0  0  0  0
   49.6490   55.7280   18.7190 N   0  0  0  0  0  0  0  0  0  0  0  0
   49.0760   55.6160   17.9450 H   0  0  0  0  0  0  0  0  0  0  0  0
   49.2890   56.5720   19.7690 C   0  0  0  0  0  0  0  0  0  0  0  0
   48.1080   57.3310   19.8400 C   0  0  0  0  0  0  0  0  0  0  0  0
   47.8440   58.1370   20.9240 C   0  0  0  0  0  0  0  0  0  0  0  0
   48.7310   58.2280   21.9800 C   0  0  0  0  0  0  0  0  0  0  0  0
   49.9020   57.4890   21.9370 C   0  0  0  0  0  0  0  0  0  0  0  0
   50.1660   56.6840   20.8520 C   0  0  0  0  0  0  0  0  0  0  0  0
   51.5350   55.6180   20.4550 S   0  0  0  0  0  0  0  0  0  0  0  0
   51.4310   50.2390   20.2700 C   0  0  0  0  0  0  0  0  0  0  0  0
   52.3220   50.6250   21.2770 F   0  0  0  0  0  0  0  0  0  0  0  0
   52.0720   49.3570   19.3940 F   0  0  0  0  0  0  0  0  0  0  0  0
   50.3240   49.6050   20.8450 F   0  0  0  0  0  0  0  0  0  0  0  0
   49.5860   49.1520   18.2920 N   0  0  0  0  0  0  0  0  0  0  0  0
   50.4800   48.8740   18.5430 H   0  0  0  0  0  0  0  0  0  0  0  0
   48.4620   48.2220   18.4310 C   0  0  0  0  0  0  0  0  0  0  0  0
   47.1890   49.0070   18.7530 C   0  0  0  0  0  0  0  0  0  0  0  0
   44.8390   46.8490   19.3290 C   0  0  0  0  0  0  0  0  0  0  0  0
   44.6940   48.0390   18.3780 C   0  0  1  0  0  0  0  0  0  0  0  0
   46.0550   48.4950   17.9010 C   0  0  2  0  0  0  0  0  0  0  0  0
   46.0490   48.3500   16.5570 C   0  0  0  0  0  0  0  0  0  0  0  0
   47.0570   48.6150   15.5240 C   0  0  0  0  0  0  0  0  0  0  0  0
   46.7530   48.3650   14.2300 C   0  0  0  0  0  0  0  0  0  0  0  0
   45.5010   47.8590   13.8530 C   0  0  0  0  0  0  0  0  0  0  0  0
   44.5240   47.5890   14.7440 C   0  0  0  0  0  0  0  0  0  0  0  0
   44.7360   47.8160   16.1320 C   0  0  0  0  0  0  0  0  0  0  0  0
   43.9570   47.6390   17.1740 N   0  0  0  0  0  0  0  0  0  0  0  0
   43.0490   47.2990   17.1530 H   0  0  0  0  0  0  0  0  0  0  0  0
  1 22  1  0  0  0  0
  1  2  2  0  0  0  0
  2  3  1  0  0  0  0
  3  4  2  0  0  0  0
  3 18  1  0  0  0  0
  5  4  1  0  0  0  0
  6  2  1  0  0  0  0
  6  5  1  0  0  0  0
  7  6  2  0  0  0  0
  8  5  1  1  0  0  0
  8 17  1  0  0  0  0
  9  8  1  0  0  0  0
  9 11  1  0  0  0  0
 10  9  1  0  0  0  0
 11 12  2  0  0  0  0
 11 16  1  0  0  0  0
 12 13  1  0  0  0  0
 13 14  2  0  0  0  0
 15 14  1  0  0  0  0
 16 15  2  0  0  0  0
 17 16  1  0  0  0  0
 18 21  1  0  0  0  0
 18 19  1  0  0  0  0
 20 18  1  0  0  0  0
 22 24  1  0  0  0  0
 22 23  1  0  0  0  0
 24 25  1  0  0  0  0
 27 26  1  6  0  0  0
 28 27  1  0  0  0  0
 28 25  1  1  0  0  0
 29 28  1  0  0  0  0
 30 29  2  0  0  0  0
 31 30  1  0  0  0  0
 32 31  2  0  0  0  0
 32 33  1  0  0  0  0
 33 34  2  0  0  0  0
 34 29  1  0  0  0  0
 34 35  1  0  0  0  0
 35 27  1  0  0  0  0
 36 35  1  0  0  0  0
M  END
>  <MODEL>
1

>  <REMARK>
  Name = ZINC63110755
                            x       y       z     vdW  Elec       q    Type
                         _______ _______ _______ _____ _____    ______ ____

>  <TORSDO>
F 6

>  <minimizedAffinity>
-10.89053416736062

$$$$
ZINC63110755
 OpenBabel10211213533D

 36 40  0  0  1  0  0  0  0  0999 V2000
   49.7510   51.9960   17.5050 C   0  0  0  0  0  0  0  0  0  0  0  0
   48.9480   50.9190   17.8430 C   0  0  0  0  0  0  0  0  0  0  0  0
   49.2660   49.8190   18.7660 C   0  0  0  0  0  0  0  0  0  0  0  0
   48.2410   49.0250   18.7970 N   0  0  0  0  0  0  0  0  0  0  0  0
   47.2200   49.4810   17.9630 N   0  0  0  0  0  0  0  0  0  0  0  0
   47.5910   50.6300   17.3630 C   0  0  0  0  0  0  0  0  0  0  0  0
   46.9340   51.2940   16.5780 O   0  0  0  0  0  0  0  0  0  0  0  0
   45.9320   48.8120   17.7720 C   0  0  1  0  0  0  0  0  0  0  0  0
   45.4150   49.0390   16.4140 N   0  0  0  0  0  0  0  0  0  0  0  0
   45.2060   49.9310   16.0980 H   0  0  0  0  0  0  0  0  0  0  0  0
   45.2360   47.9220   15.5990 C   0  0  0  0  0  0  0  0  0  0  0  0
   44.7550   47.9420   14.2780 C   0  0  0  0  0  0  0  0  0  0  0  0
   44.6140   46.7810   13.5530 C   0  0  0  0  0  0  0  0  0  0  0  0
   44.9410   45.5540   14.0990 C   0  0  0  0  0  0  0  0  0  0  0  0
   45.4190   45.5040   15.3980 C   0  0  0  0  0  0  0  0  0  0  0  0
   45.5590   46.6660   16.1220 C   0  0  0  0  0  0  0  0  0  0  0  0
   46.1260   46.9850   17.7790 S   0  0  0  0  0  0  0  0  0  0  0  0
   50.5500   49.6470   19.5370 C   0  0  0  0  0  0  0  0  0  0  0  0
   50.5960   48.3600   20.0830 F   0  0  0  0  0  0  0  0  0  0  0  0
   50.6080   50.5930   20.5650 F   0  0  0  0  0  0  0  0  0  0  0  0
   51.6380   49.8280   18.6750 F   0  0  0  0  0  0  0  0  0  0  0  0
   50.9830   52.1120   18.0410 N   0  0  0  0  0  0  0  0  0  0  0  0
   51.6750   51.4730   17.8090 H   0  0  0  0  0  0  0  0  0  0  0  0
   51.2760   53.2050   18.9720 C   0  0  0  0  0  0  0  0  0  0  0  0
   49.9790   53.6650   19.6410 C   0  0  0  0  0  0  0  0  0  0  0  0
   51.5730   53.9700   22.4470 C   0  0  0  0  0  0  0  0  0  0  0  0
   51.4770   55.0750   21.3920 C   0  0  1  0  0  0  0  0  0  0  0  0
   50.2630   54.8580   20.5180 C   0  0  2  0  0  0  0  0  0  0  0  0
   49.4820   55.9490   20.6830 C   0  0  0  0  0  0  0  0  0  0  0  0
   48.1850   56.3390   20.1160 C   0  0  0  0  0  0  0  0  0  0  0  0
   47.6390   57.5220   20.4800 C   0  0  0  0  0  0  0  0  0  0  0  0
   48.2800   58.3830   21.3810 C   0  0  0  0  0  0  0  0  0  0  0  0
   49.4720   58.0950   21.9440 C   0  0  0  0  0  0  0  0  0  0  0  0
   50.1370   56.8760   21.6330 C   0  0  0  0  0  0  0  0  0  0  0  0
   51.2810   56.3770   22.0390 N   0  0  0  0  0  0  0  0  0  0  0  0
   51.8940   56.7970   22.6630 H   0  0  0  0  0  0  0  0  0  0  0  0
  1  2  2  0  0  0  0
  1 22  1  0  0  0  0
  2  3  1  0  0  0  0
  3  4  2  0  0  0  0
  3 18  1  0  0  0  0
  5  4  1  0  0  0  0
  6  2  1  0  0  0  0
  6  5  1  0  0  0  0
  7  6  2  0  0  0  0
  8 17  1  0  0  0  0
  8  5  1  6  0  0  0
  9  8  1  0  0  0  0
 10  9  1  0  0  0  0
 11 16  1  0  0  0  0
 11  9  1  0  0  0  0
 12 11  2  0  0  0  0
 13 14  2  0  0  0  0
 13 12  1  0  0  0  0
 14 15  1  0  0  0  0
 15 16  2  0  0  0  0
 16 17  1  0  0  0  0
 18 19  1  0  0  0  0
 18 20  1  0  0  0  0
 21 18  1  0  0  0  0
 22 24  1  0  0  0  0
 23 22  1  0  0  0  0
 24 25  1  0  0  0  0
 27 35  1  0  0  0  0
 27 26  1  1  0  0  0
 28 25  1  1  0  0  0
 28 29  1  0  0  0  0
 28 27  1  0  0  0  0
 29 34  2  0  0  0  0
 30 31  2  0  0  0  0
 30 29  1  0  0  0  0
 31 32  1  0  0  0  0
 32 33  2  0  0  0  0
 34 33  1  0  0  0  0
 34 35  1  0  0  0  0
 35 36  1  0  0  0  0
M  END
>  <MODEL>
2

>  <REMARK>
  Name = ZINC63110755
                            x       y       z     vdW  Elec       q    Type
                         _______ _______ _______ _____ _____    ______ ____

>  <TORSDO>
F 6

>  <minimizedAffinity>
-10.413524536523393

$$$$
ZINC63110755
 OpenBabel10211213533D

 36 40  0  0  1  0  0  0  0  0999 V2000
   49.4530   50.5990   18.1970 C   0  0  0  0  0  0  0  0  0  0  0  0
   50.1930   51.6480   18.7180 C   0  0  0  0  0  0  0  0  0  0  0  0
   51.2670   51.5750   19.7200 C   0  0  0  0  0  0  0  0  0  0  0  0
   51.6920   52.7830   19.9250 N   0  0  0  0  0  0  0  0  0  0  0  0
   50.9970   53.7060   19.1440 N   0  0  0  0  0  0  0  0  0  0  0  0
   50.0800   53.0730   18.3860 C   0  0  0  0  0  0  0  0  0  0  0  0
   49.3090   53.5820   17.5880 O   0  0  0  0  0  0  0  0  0  0  0  0
   51.2350   55.1510   19.1410 C   0  0  1  0  0  0  0  0  0  0  0  0
   49.9950   55.8910   18.8640 N   0  0  0  0  0  0  0  0  0  0  0  0
   49.5220   55.7830   18.0250 H   0  0  0  0  0  0  0  0  0  0  0  0
   49.5260   56.7540   19.8530 C   0  0  0  0  0  0  0  0  0  0  0  0
   48.3630   57.5390   19.7690 C   0  0  0  0  0  0  0  0  0  0  0  0
   47.9830   58.3620   20.8030 C   0  0  0  0  0  0  0  0  0  0  0  0
   48.7310   58.4450   21.9620 C   0  0  0  0  0  0  0  0  0  0  0  0
   49.8800   57.6810   22.0740 C   0  0  0  0  0  0  0  0  0  0  0  0
   50.2600   56.8580   21.0380 C   0  0  0  0  0  0  0  0  0  0  0  0
   51.6440   55.7580   20.8270 S   0  0  0  0  0  0  0  0  0  0  0  0
   51.7790   50.3240   20.3860 C   0  0  0  0  0  0  0  0  0  0  0  0
   52.7880   50.6610   21.2950 F   0  0  0  0  0  0  0  0  0  0  0  0
   52.2950   49.4570   19.4180 F   0  0  0  0  0  0  0  0  0  0  0  0
   50.7310   49.6950   21.0650 F   0  0  0  0  0  0  0  0  0  0  0  0
   49.6850   49.3370   18.6140 N   0  0  0  0  0  0  0  0  0  0  0  0
   50.3840   49.1630   19.2630 H   0  0  0  0  0  0  0  0  0  0  0  0
   48.8810   48.2320   18.0860 C   0  0  0  0  0  0  0  0  0  0  0  0
   47.4540   48.7200   17.8250 C   0  0  0  0  0  0  0  0  0  0  0  0
   48.2680   50.5460   15.2740 C   0  0  0  0  0  0  0  0  0  0  0  0
   48.0180   49.0380   15.2020 C   0  0  1  0  0  0  0  0  0  0  0  0
   47.1430   48.5990   16.3550 C   0  0  2  0  0  0  0  0  0  0  0  0
   46.0260   48.0770   15.8010 C   0  0  0  0  0  0  0  0  0  0  0  0
   44.8120   47.4880   16.3780 C   0  0  0  0  0  0  0  0  0  0  0  0
   43.8410   47.0410   15.5480 C   0  0  0  0  0  0  0  0  0  0  0  0
   43.9660   47.1270   14.1550 C   0  0  0  0  0  0  0  0  0  0  0  0
   45.0500   47.6560   13.5500 C   0  0  0  0  0  0  0  0  0  0  0  0
   46.1320   48.1570   14.3270 C   0  0  0  0  0  0  0  0  0  0  0  0
   47.2740   48.7060   13.9820 N   0  0  0  0  0  0  0  0  0  0  0  0
   47.5750   48.8660   13.0740 H   0  0  0  0  0  0  0  0  0  0  0  0
  1 22  1  0  0  0  0
  1  2  2  0  0  0  0
  2  3  1  0  0  0  0
  3  4  2  0  0  0  0
  3 18  1  0  0  0  0
  5  4  1  0  0  0  0
  6  2  1  0  0  0  0
  6  5  1  0  0  0  0
  7  6  2  0  0  0  0
  8  5  1  1  0  0  0
  8 17  1  0  0  0  0
  9  8  1  0  0  0  0
  9 11  1  0  0  0  0
 10  9  1  0  0  0  0
 11 16  1  0  0  0  0
 12 11  2  0  0  0  0
 12 13  1  0  0  0  0
 13 14  2  0  0  0  0
 14 15  1  0  0  0  0
 16 15  2  0  0  0  0
 17 16  1  0  0  0  0
 18 21  1  0  0  0  0
 18 19  1  0  0  0  0
 20 18  1  0  0  0  0
 22 23  1  0  0  0  0
 24 22  1  0  0  0  0
 25 24  1  0  0  0  0
 27 26  1  6  0  0  0
 27 28  1  0  0  0  0
 28 25  1  1  0  0  0
 29 28  1  0  0  0  0
 29 30  1  0  0  0  0
 31 30  2  0  0  0  0
 32 31  1  0  0  0  0
 33 32  2  0  0  0  0
 33 34  1  0  0  0  0
 34 29  2  0  0  0  0
 35 34  1  0  0  0  0
 35 27  1  0  0  0  0
 36 35  1  0  0  0  0
M  END
>  <MODEL>
3

>  <REMARK>
  Name = ZINC63110755
                            x       y       z     vdW  Elec       q    Type
                         _______ _______ _______ _____ _____    ______ ____

>  <TORSDO>
F 6

>  <minimizedAffinity>
-10.127857928841651

$$$$
ZINC63110755
 OpenBabel10211213533D

 36 40  0  0  1  0  0  0  0  0999 V2000
   49.8560   52.8500   18.8120 C   0  0  0  0  0  0  0  0  0  0  0  0
   49.9300   51.4680   18.7660 C   0  0  0  0  0  0  0  0  0  0  0  0
   50.9650   50.6070   19.3590 C   0  0  0  0  0  0  0  0  0  0  0  0
   50.6560   49.3780   19.0830 N   0  0  0  0  0  0  0  0  0  0  0  0
   49.4790   49.3040   18.3370 N   0  0  0  0  0  0  0  0  0  0  0  0
   48.9910   50.5420   18.1210 C   0  0  0  0  0  0  0  0  0  0  0  0
   47.9760   50.8350   17.5100 O   0  0  0  0  0  0  0  0  0  0  0  0
   48.8610   48.0640   17.8650 C   0  0  1  0  0  0  0  0  0  0  0  0
   47.4140   48.0640   18.1220 N   0  0  0  0  0  0  0  0  0  0  0  0
   47.0630   48.1100   19.0250 H   0  0  0  0  0  0  0  0  0  0  0  0
   46.5630   47.9950   17.0200 C   0  0  0  0  0  0  0  0  0  0  0  0
   45.1580   47.9840   17.0690 C   0  0  0  0  0  0  0  0  0  0  0  0
   44.4060   47.9130   15.9200 C   0  0  0  0  0  0  0  0  0  0  0  0
   45.0050   47.8500   14.6760 C   0  0  0  0  0  0  0  0  0  0  0  0
   46.3870   47.8610   14.5970 C   0  0  0  0  0  0  0  0  0  0  0  0
   47.1400   47.9310   15.7480 C   0  0  0  0  0  0  0  0  0  0  0  0
   48.8970   47.9630   16.0310 S   0  0  0  0  0  0  0  0  0  0  0  0
   52.1660   51.0690   20.1430 C   0  0  0  0  0  0  0  0  0  0  0  0
   52.9330   51.9340   19.3550 F   0  0  0  0  0  0  0  0  0  0  0  0
   52.9390   49.9620   20.5090 F   0  0  0  0  0  0  0  0  0  0  0  0
   51.7400   51.7410   21.2940 F   0  0  0  0  0  0  0  0  0  0  0  0
   50.8100   53.5560   19.4520 N   0  0  0  0  0  0  0  0  0  0  0  0
   51.1090   53.2800   20.3320 H   0  0  0  0  0  0  0  0  0  0  0  0
   51.3940   54.7400   18.8170 C   0  0  0  0  0  0  0  0  0  0  0  0
   52.2240   55.5120   19.8450 C   0  0  0  0  0  0  0  0  0  0  0  0
   51.7130   55.4510   23.0450 C   0  0  0  0  0  0  0  0  0  0  0  0
   51.5510   56.7000   22.1760 C   0  0  1  0  0  0  0  0  0  0  0  0
   51.3040   56.3060   20.7380 C   0  0  1  0  0  0  0  0  0  0  0  0
   50.0920   56.8100   20.4130 C   0  0  0  0  0  0  0  0  0  0  0  0
   49.2960   56.7710   19.1810 C   0  0  0  0  0  0  0  0  0  0  0  0
   48.0890   57.3820   19.1600 C   0  0  0  0  0  0  0  0  0  0  0  0
   47.5810   58.0480   20.2830 C   0  0  0  0  0  0  0  0  0  0  0  0
   48.2520   58.1260   21.4520 C   0  0  0  0  0  0  0  0  0  0  0  0
   49.5320   57.5190   21.5860 C   0  0  0  0  0  0  0  0  0  0  0  0
   50.3680   57.4590   22.5960 N   0  0  0  0  0  0  0  0  0  0  0  0
   50.2270   57.8480   23.4730 H   0  0  0  0  0  0  0  0  0  0  0  0
  1 22  1  0  0  0  0
  2  1  2  0  0  0  0
  2  3  1  0  0  0  0
  3 18  1  0  0  0  0
  4  3  2  0  0  0  0
  5  4  1  0  0  0  0
  6  5  1  0  0  0  0
  6  2  1  0  0  0  0
  7  6  2  0  0  0  0
  8  9  1  0  0  0  0
  8  5  1  6  0  0  0
  9 10  1  0  0  0  0
 11 12  1  0  0  0  0
 11  9  1  0  0  0  0
 13 12  2  0  0  0  0
 14 13  1  0  0  0  0
 15 14  2  0  0  0  0
 15 16  1  0  0  0  0
 16 17  1  0  0  0  0
 16 11  2  0  0  0  0
 17  8  1  0  0  0  0
 18 20  1  0  0  0  0
 18 21  1  0  0  0  0
 19 18  1  0  0  0  0
 22 23  1  0  0  0  0
 24 22  1  0  0  0  0
 24 25  1  0  0  0  0
 27 35  1  0  0  0  0
 27 26  1  6  0  0  0
 28 25  1  6  0  0  0
 28 27  1  0  0  0  0
 29 28  1  0  0  0  0
 29 34  2  0  0  0  0
 30 29  1  0  0  0  0
 31 30  2  0  0  0  0
 31 32  1  0  0  0  0
 32 33  2  0  0  0  0
 33 34  1  0  0  0  0
 34 35  1  0  0  0  0
 35 36  1  0  0  0  0
M  END
>  <MODEL>
4

>  <REMARK>
  Name = ZINC63110755
                            x       y       z     vdW  Elec       q    Type
                         _______ _______ _______ _____ _____    ______ ____

>  <TORSDO>
F 6

>  <minimizedAffinity>
-9.9758577200905112

$$$$
ZINC63110755
 OpenBabel10211213533D

 36 40  0  0  1  0  0  0  0  0999 V2000
   50.1380   53.3550   18.3050 C   0  0  0  0  0  0  0  0  0  0  0  0
   50.1390   51.9980   18.5860 C   0  0  0  0  0  0  0  0  0  0  0  0
   51.0780   51.2620   19.4460 C   0  0  0  0  0  0  0  0  0  0  0  0
   50.7220   50.0150   19.4360 N   0  0  0  0  0  0  0  0  0  0  0  0
   49.6010   49.8130   18.6310 N   0  0  0  0  0  0  0  0  0  0  0  0
   49.1990   50.9830   18.0950 C   0  0  0  0  0  0  0  0  0  0  0  0
   48.2490   51.1620   17.3510 O   0  0  0  0  0  0  0  0  0  0  0  0
   48.9500   48.5200   18.4080 C   0  0  1  0  0  0  0  0  0  0  0  0
   47.5100   48.5980   18.6910 N   0  0  0  0  0  0  0  0  0  0  0  0
   47.1810   48.8160   19.5770 H   0  0  0  0  0  0  0  0  0  0  0  0
   46.6320   48.3460   17.6370 C   0  0  0  0  0  0  0  0  0  0  0  0
   45.2290   48.3740   17.7160 C   0  0  0  0  0  0  0  0  0  0  0  0
   44.4480   48.1100   16.6160 C   0  0  0  0  0  0  0  0  0  0  0  0
   45.0160   47.8070   15.3920 C   0  0  0  0  0  0  0  0  0  0  0  0
   46.3960   47.7730   15.2840 C   0  0  0  0  0  0  0  0  0  0  0  0
   47.1770   48.0370   16.3870 C   0  0  0  0  0  0  0  0  0  0  0  0
   48.9410   48.0840   16.6230 S   0  0  0  0  0  0  0  0  0  0  0  0
   52.2420   51.8510   20.2010 C   0  0  0  0  0  0  0  0  0  0  0  0
   53.1290   52.4460   19.2980 F   0  0  0  0  0  0  0  0  0  0  0  0
   52.9020   50.8380   20.9040 F   0  0  0  0  0  0  0  0  0  0  0  0
   51.7750   52.8150   21.1010 F   0  0  0  0  0  0  0  0  0  0  0  0
   51.0810   54.1550   18.8430 N   0  0  0  0  0  0  0  0  0  0  0  0
   51.9820   53.8210   18.9750 H   0  0  0  0  0  0  0  0  0  0  0  0
   50.7440   55.5280   19.2260 C   0  0  0  0  0  0  0  0  0  0  0  0
   49.2810   55.5890   19.6680 C   0  0  0  0  0  0  0  0  0  0  0  0
   47.4040   58.0050   20.7390 C   0  0  0  0  0  0  0  0  0  0  0  0
   48.3050   58.1030   19.5060 C   0  0  1  0  0  0  0  0  0  0  0  0
   48.5880   56.7230   18.9560 C   0  0  1  0  0  0  0  0  0  0  0  0
   48.0940   56.7120   17.6970 C   0  0  0  0  0  0  0  0  0  0  0  0
   48.0550   55.6810   16.6540 C   0  0  0  0  0  0  0  0  0  0  0  0
   47.4790   55.9730   15.4650 C   0  0  0  0  0  0  0  0  0  0  0  0
   46.9200   57.2320   15.2060 C   0  0  0  0  0  0  0  0  0  0  0  0
   46.9170   58.2290   16.1150 C   0  0  0  0  0  0  0  0  0  0  0  0
   47.4960   58.0330   17.3990 C   0  0  0  0  0  0  0  0  0  0  0  0
   47.6170   58.8320   18.4340 N   0  0  0  0  0  0  0  0  0  0  0  0
   47.3040   59.7480   18.4820 H   0  0  0  0  0  0  0  0  0  0  0  0
  1  2  2  0  0  0  0
  1 22  1  0  0  0  0
  2  3  1  0  0  0  0
  3 18  1  0  0  0  0
  4  3  2  0  0  0  0
  5  4  1  0  0  0  0
  6  2  1  0  0  0  0
  6  5  1  0  0  0  0
  7  6  2  0  0  0  0
  8  5  1  6  0  0  0
  8  9  1  0  0  0  0
  9 10  1  0  0  0  0
 11 12  1  0  0  0  0
 11  9  1  0  0  0  0
 13 12  2  0  0  0  0
 14 13  1  0  0  0  0
 15 14  2  0  0  0  0
 15 16  1  0  0  0  0
 16 17  1  0  0  0  0
 16 11  2  0  0  0  0
 17  8  1  0  0  0  0
 18 20  1  0  0  0  0
 18 21  1  0  0  0  0
 19 18  1  0  0  0  0
 22 23  1  0  0  0  0
 22 24  1  0  0  0  0
 24 25  1  0  0  0  0
 27 26  1  6  0  0  0
 28 27  1  0  0  0  0
 28 25  1  6  0  0  0
 29 28  1  0  0  0  0
 30 29  2  0  0  0  0
 31 30  1  0  0  0  0
 32 31  2  0  0  0  0
 32 33  1  0  0  0  0
 33 34  2  0  0  0  0
 34 29  1  0  0  0  0
 34 35  1  0  0  0  0
 35 36  1  0  0  0  0
 35 27  1  0  0  0  0
M  END
>  <MODEL>
5

>  <REMARK>
  Name = ZINC63110755
                            x       y       z     vdW  Elec       q    Type
                         _______ _______ _______ _____ _____    ______ ____

>  <TORSDO>
F 6

>  <minimizedAffinity>
-9.8493226386479069

$$$$
ZINC63110755
 OpenBabel10211213533D

 36 40  0  0  1  0  0  0  0  0999 V2000
   48.5950   49.2840   17.9160 C   0  0  0  0  0  0  0  0  0  0  0  0
   49.3210   50.4380   18.1580 C   0  0  0  0  0  0  0  0  0  0  0  0
   49.0830   51.7790   17.6020 C   0  0  0  0  0  0  0  0  0  0  0  0
   49.9900   52.5690   18.0850 N   0  0  0  0  0  0  0  0  0  0  0  0
   50.8540   51.8870   18.9430 N   0  0  0  0  0  0  0  0  0  0  0  0
   50.4920   50.5920   19.0300 C   0  0  0  0  0  0  0  0  0  0  0  0
   51.0290   49.7220   19.6960 O   0  0  0  0  0  0  0  0  0  0  0  0
   51.9850   52.4920   19.6500 C   0  0  1  0  0  0  0  0  0  0  0  0
   52.2360   53.8600   19.1730 N   0  0  0  0  0  0  0  0  0  0  0  0
   52.4840   54.0340   18.2520 H   0  0  0  0  0  0  0  0  0  0  0  0
   52.1060   54.8980   20.0950 C   0  0  0  0  0  0  0  0  0  0  0  0
   52.3050   56.2630   19.8240 C   0  0  0  0  0  0  0  0  0  0  0  0
   52.1510   57.2140   20.8050 C   0  0  0  0  0  0  0  0  0  0  0  0
   51.7950   56.8600   22.0930 C   0  0  0  0  0  0  0  0  0  0  0  0
   51.5900   55.5230   22.3890 C   0  0  0  0  0  0  0  0  0  0  0  0
   51.7460   54.5720   21.4060 C   0  0  0  0  0  0  0  0  0  0  0  0
   51.5730   52.8000   21.4140 S   0  0  0  0  0  0  0  0  0  0  0  0
   47.9850   52.1630   16.6440 C   0  0  0  0  0  0  0  0  0  0  0  0
   46.7420   51.9260   17.2400 F   0  0  0  0  0  0  0  0  0  0  0  0
   48.0960   51.4010   15.4770 F   0  0  0  0  0  0  0  0  0  0  0  0
   48.0980   53.5210   16.3260 F   0  0  0  0  0  0  0  0  0  0  0  0
   47.5370   49.3150   17.0800 N   0  0  0  0  0  0  0  0  0  0  0  0
   47.4040   50.0780   16.4960 H   0  0  0  0  0  0  0  0  0  0  0  0
   46.5900   48.1980   17.0550 C   0  0  0  0  0  0  0  0  0  0  0  0
   46.7750   47.4030   15.7600 C   0  0  0  0  0  0  0  0  0  0  0  0
   44.2040   45.4380   15.5700 C   0  0  0  0  0  0  0  0  0  0  0  0
   44.1450   46.9490   15.3380 C   0  0  1  0  0  0  0  0  0  0  0  0
   45.5090   47.4700   14.9440 C   0  0  2  0  0  0  0  0  0  0  0  0
   45.3640   48.0080   13.7120 C   0  0  0  0  0  0  0  0  0  0  0  0
   46.3050   48.6660   12.7980 C   0  0  0  0  0  0  0  0  0  0  0  0
   45.8540   49.1110   11.6020 C   0  0  0  0  0  0  0  0  0  0  0  0
   44.5150   48.9600   11.2170 C   0  0  0  0  0  0  0  0  0  0  0  0
   43.5920   48.3650   12.0020 C   0  0  0  0  0  0  0  0  0  0  0  0
   43.9560   47.8600   13.2810 C   0  0  0  0  0  0  0  0  0  0  0  0
   43.2560   47.2550   14.2120 N   0  0  0  0  0  0  0  0  0  0  0  0
   42.3100   47.0440   14.1630 H   0  0  0  0  0  0  0  0  0  0  0  0
  1  2  2  0  0  0  0
  2  6  1  0  0  0  0
  3  4  2  0  0  0  0
  3  2  1  0  0  0  0
  4  5  1  0  0  0  0
  5  6  1  0  0  0  0
  6  7  2  0  0  0  0
  8  5  1  1  0  0  0
  8 17  1  0  0  0  0
  9  8  1  0  0  0  0
  9 11  1  0  0  0  0
 10  9  1  0  0  0  0
 11 16  1  0  0  0  0
 12 11  2  0  0  0  0
 12 13  1  0  0  0  0
 13 14  2  0  0  0  0
 14 15  1  0  0  0  0
 16 17  1  0  0  0  0
 16 15  2  0  0  0  0
 18 19  1  0  0  0  0
 18  3  1  0  0  0  0
 20 18  1  0  0  0  0
 21 18  1  0  0  0  0
 22  1  1  0  0  0  0
 23 22  1  0  0  0  0
 24 22  1  0  0  0  0
 25 24  1  0  0  0  0
 27 26  1  6  0  0  0
 28 27  1  0  0  0  0
 28 25  1  6  0  0  0
 29 28  1  0  0  0  0
 30 29  2  0  0  0  0
 31 30  1  0  0  0  0
 32 31  2  0  0  0  0
 32 33  1  0  0  0  0
 33 34  2  0  0  0  0
 34 29  1  0  0  0  0
 34 35  1  0  0  0  0
 35 27  1  0  0  0  0
 36 35  1  0  0  0  0
M  END
>  <MODEL>
6

>  <REMARK>
  Name = ZINC63110755
                            x       y       z     vdW  Elec       q    Type
                         _______ _______ _______ _____ _____    ______ ____

>  <TORSDO>
F 6

>  <minimizedAffinity>
-9.718000905457961

$$$$
ZINC63110755
 OpenBabel10211213533D

 36 40  0  0  1  0  0  0  0  0999 V2000
   50.2810   50.1610   16.2680 C   0  0  0  0  0  0  0  0  0  0  0  0
   50.4370   51.1300   17.2460 C   0  0  0  0  0  0  0  0  0  0  0  0
   49.4570   52.1410   17.6690 C   0  0  0  0  0  0  0  0  0  0  0  0
   50.0040   52.8460   18.6100 N   0  0  0  0  0  0  0  0  0  0  0  0
   51.3010   52.4100   18.8840 N   0  0  0  0  0  0  0  0  0  0  0  0
   51.6140   51.3650   18.0910 C   0  0  0  0  0  0  0  0  0  0  0  0
   52.6640   50.7440   18.0750 O   0  0  0  0  0  0  0  0  0  0  0  0
   52.1880   52.9950   19.8910 C   0  0  1  0  0  0  0  0  0  0  0  0
   52.6640   54.3200   19.4700 N   0  0  0  0  0  0  0  0  0  0  0  0
   53.1990   54.4320   18.6690 H   0  0  0  0  0  0  0  0  0  0  0  0
   52.3180   55.4120   20.2660 C   0  0  0  0  0  0  0  0  0  0  0  0
   52.6790   56.7480   20.0230 C   0  0  0  0  0  0  0  0  0  0  0  0
   52.2860   57.7570   20.8710 C   0  0  0  0  0  0  0  0  0  0  0  0
   51.5220   57.4920   21.9920 C   0  0  0  0  0  0  0  0  0  0  0  0
   51.1490   56.1840   22.2550 C   0  0  0  0  0  0  0  0  0  0  0  0
   51.5440   55.1750   21.4060 C   0  0  0  0  0  0  0  0  0  0  0  0
   51.2640   53.4170   21.4220 S   0  0  0  0  0  0  0  0  0  0  0  0
   48.0690   52.3250   17.1100 C   0  0  0  0  0  0  0  0  0  0  0  0
   48.1440   52.4920   15.7240 F   0  0  0  0  0  0  0  0  0  0  0  0
   47.4810   53.4560   17.6850 F   0  0  0  0  0  0  0  0  0  0  0  0
   47.2960   51.1970   17.4040 F   0  0  0  0  0  0  0  0  0  0  0  0
   49.1250   50.0810   15.5770 N   0  0  0  0  0  0  0  0  0  0  0  0
   48.6150   50.8840   15.3900 H   0  0  0  0  0  0  0  0  0  0  0  0
   48.6390   48.7790   15.1120 C   0  0  0  0  0  0  0  0  0  0  0  0
   47.2680   48.9520   14.4570 C   0  0  0  0  0  0  0  0  0  0  0  0
   44.2490   48.0460   13.6990 C   0  0  0  0  0  0  0  0  0  0  0  0
   45.2030   47.2120   14.5560 C   0  0  1  0  0  0  0  0  0  0  0  0
   46.2550   48.1000   15.1810 C   0  0  2  0  0  0  0  0  0  0  0  0
   46.1040   47.9770   16.5190 C   0  0  0  0  0  0  0  0  0  0  0  0
   46.8110   48.5760   17.6580 C   0  0  0  0  0  0  0  0  0  0  0  0
   46.4230   48.2520   18.9130 C   0  0  0  0  0  0  0  0  0  0  0  0
   45.3660   47.3630   19.1520 C   0  0  0  0  0  0  0  0  0  0  0  0
   44.6690   46.7740   18.1570 C   0  0  0  0  0  0  0  0  0  0  0  0
   44.9920   47.0420   16.7980 C   0  0  0  0  0  0  0  0  0  0  0  0
   44.4750   46.6010   15.6740 N   0  0  0  0  0  0  0  0  0  0  0  0
   43.7360   45.9780   15.5960 H   0  0  0  0  0  0  0  0  0  0  0  0
  1  2  2  0  0  0  0
  2  3  1  0  0  0  0
  2  6  1  0  0  0  0
  3  4  2  0  0  0  0
  4  5  1  0  0  0  0
  6  5  1  0  0  0  0
  7  6  2  0  0  0  0
  8  5  1  6  0  0  0
  8 17  1  0  0  0  0
  9  8  1  0  0  0  0
  9 11  1  0  0  0  0
 10  9  1  0  0  0  0
 11 16  1  0  0  0  0
 12 11  2  0  0  0  0
 12 13  1  0  0  0  0
 13 14  2  0  0  0  0
 14 15  1  0  0  0  0
 16 17  1  0  0  0  0
 16 15  2  0  0  0  0
 18 21  1  0  0  0  0
 18  3  1  0  0  0  0
 18 20  1  0  0  0  0
 19 18  1  0  0  0  0
 22  1  1  0  0  0  0
 23 22  1  0  0  0  0
 24 22  1  0  0  0  0
 25 24  1  0  0  0  0
 27 26  1  1  0  0  0
 27 28  1  0  0  0  0
 27 35  1  0  0  0  0
 28 25  1  6  0  0  0
 28 29  1  0  0  0  0
 29 34  2  0  0  0  0
 29 30  1  0  0  0  0
 30 31  2  0  0  0  0
 31 32  1  0  0  0  0
 33 32  2  0  0  0  0
 34 33  1  0  0  0  0
 35 34  1  0  0  0  0
 36 35  1  0  0  0  0
M  END
>  <MODEL>
7

>  <REMARK>
  Name = ZINC63110755
                            x       y       z     vdW  Elec       q    Type
                         _______ _______ _______ _____ _____    ______ ____

>  <TORSDO>
F 6

>  <minimizedAffinity>
-9.7101549856735883

$$$$
ZINC63110755
 OpenBabel10211213533D

 36 40  0  0  1  0  0  0  0  0999 V2000
   50.1380   50.2110   18.1050 C   0  0  0  0  0  0  0  0  0  0  0  0
   50.0110   51.5900   18.1040 C   0  0  0  0  0  0  0  0  0  0  0  0
   49.0270   52.3990   17.3700 C   0  0  0  0  0  0  0  0  0  0  0  0
   49.2580   53.6440   17.6470 N   0  0  0  0  0  0  0  0  0  0  0  0
   50.3350   53.7780   18.5240 N   0  0  0  0  0  0  0  0  0  0  0  0
   50.8270   52.5630   18.8400 C   0  0  0  0  0  0  0  0  0  0  0  0
   51.7630   52.3210   19.5850 O   0  0  0  0  0  0  0  0  0  0  0  0
   50.8510   55.0510   19.0320 C   0  0  1  0  0  0  0  0  0  0  0  0
   50.0800   56.1830   18.4980 N   0  0  0  0  0  0  0  0  0  0  0  0
   50.0480   56.3670   17.5470 H   0  0  0  0  0  0  0  0  0  0  0  0
   49.3970   56.9850   19.4120 C   0  0  0  0  0  0  0  0  0  0  0  0
   48.6120   58.1060   19.0900 C   0  0  0  0  0  0  0  0  0  0  0  0
   47.9750   58.8340   20.0680 C   0  0  0  0  0  0  0  0  0  0  0  0
   48.0860   58.4890   21.4020 C   0  0  0  0  0  0  0  0  0  0  0  0
   48.8510   57.3880   21.7490 C   0  0  0  0  0  0  0  0  0  0  0  0
   49.4890   56.6600   20.7690 C   0  0  0  0  0  0  0  0  0  0  0  0
   50.5340   55.2210   20.8330 S   0  0  0  0  0  0  0  0  0  0  0  0
   47.9450   51.8750   16.4600 C   0  0  0  0  0  0  0  0  0  0  0  0
   46.9740   51.2170   17.2210 F   0  0  0  0  0  0  0  0  0  0  0  0
   48.5020   50.9790   15.5410 F   0  0  0  0  0  0  0  0  0  0  0  0
   47.3570   52.9420   15.7730 F   0  0  0  0  0  0  0  0  0  0  0  0
   49.2990   49.4560   17.3660 N   0  0  0  0  0  0  0  0  0  0  0  0
   49.1270   49.6880   16.4400 H   0  0  0  0  0  0  0  0  0  0  0  0
   48.6490   48.2860   17.9620 C   0  0  0  0  0  0  0  0  0  0  0  0
   47.4300   48.7380   18.7700 C   0  0  0  0  0  0  0  0  0  0  0  0
   44.9560   46.8540   19.6840 C   0  0  0  0  0  0  0  0  0  0  0  0
   44.8290   48.0120   18.6920 C   0  0  1  0  0  0  0  0  0  0  0  0
   46.1710   48.3080   18.0610 C   0  0  2  0  0  0  0  0  0  0  0  0
   46.0140   48.1080   16.7330 C   0  0  0  0  0  0  0  0  0  0  0  0
   46.9320   48.2280   15.5940 C   0  0  0  0  0  0  0  0  0  0  0  0
   46.4730   47.9550   14.3510 C   0  0  0  0  0  0  0  0  0  0  0  0
   45.1460   47.5630   14.1240 C   0  0  0  0  0  0  0  0  0  0  0  0
   44.2440   47.4310   15.1190 C   0  0  0  0  0  0  0  0  0  0  0  0
   44.6180   47.6920   16.4670 C   0  0  0  0  0  0  0  0  0  0  0  0
   43.9380   47.6380   17.5880 N   0  0  0  0  0  0  0  0  0  0  0  0
   43.0030   47.3900   17.6730 H   0  0  0  0  0  0  0  0  0  0  0  0
  2  1  2  0  0  0  0
  2  6  1  0  0  0  0
  3  4  2  0  0  0  0
  3  2  1  0  0  0  0
  4  5  1  0  0  0  0
  5  6  1  0  0  0  0
  6  7  2  0  0  0  0
  8  5  1  1  0  0  0
  8 17  1  0  0  0  0
  9  8  1  0  0  0  0
  9 11  1  0  0  0  0
 10  9  1  0  0  0  0
 11 16  1  0  0  0  0
 12 11  2  0  0  0  0
 12 13  1  0  0  0  0
 13 14  2  0  0  0  0
 14 15  1  0  0  0  0
 16 17  1  0  0  0  0
 16 15  2  0  0  0  0
 18 19  1  0  0  0  0
 18  3  1  0  0  0  0
 20 18  1  0  0  0  0
 21 18  1  0  0  0  0
 22 24  1  0  0  0  0
 22  1  1  0  0  0  0
 23 22  1  0  0  0  0
 24 25  1  0  0  0  0
 27 26  1  6  0  0  0
 28 27  1  0  0  0  0
 28 25  1  1  0  0  0
 29 28  1  0  0  0  0
 30 29  2  0  0  0  0
 31 30  1  0  0  0  0
 32 31  2  0  0  0  0
 32 33  1  0  0  0  0
 33 34  2  0  0  0  0
 34 29  1  0  0  0  0
 34 35  1  0  0  0  0
 35 36  1  0  0  0  0
 35 27  1  0  0  0  0
M  END
>  <MODEL>
8

>  <REMARK>
  Name = ZINC63110755
                            x       y       z     vdW  Elec       q    Type
                         _______ _______ _______ _____ _____    ______ ____

>  <TORSDO>
F 6

>  <minimizedAffinity>
-9.6513423875990796

$$$$
ZINC63110755
 OpenBabel10211213533D

 36 40  0  0  1  0  0  0  0  0999 V2000
   50.9740   51.1990   17.8810 C   0  0  0  0  0  0  0  0  0  0  0  0
   49.8420   50.4550   18.1740 C   0  0  0  0  0  0  0  0  0  0  0  0
   49.6510   49.5180   19.2910 C   0  0  0  0  0  0  0  0  0  0  0  0
   48.4500   49.0380   19.1980 N   0  0  0  0  0  0  0  0  0  0  0  0
   47.7760   49.5650   18.0960 N   0  0  0  0  0  0  0  0  0  0  0  0
   48.5700   50.4360   17.4410 C   0  0  0  0  0  0  0  0  0  0  0  0
   48.2900   51.0760   16.4410 O   0  0  0  0  0  0  0  0  0  0  0  0
   46.4050   49.2270   17.7110 C   0  0  1  0  0  0  0  0  0  0  0  0
   46.2200   49.3430   16.2570 N   0  0  0  0  0  0  0  0  0  0  0  0
   46.3330   50.1910   15.8010 H   0  0  0  0  0  0  0  0  0  0  0  0
   45.8760   48.1870   15.5570 C   0  0  0  0  0  0  0  0  0  0  0  0
   45.6600   48.1040   14.1700 C   0  0  0  0  0  0  0  0  0  0  0  0
   45.3220   46.9120   13.5720 C   0  0  0  0  0  0  0  0  0  0  0  0
   45.1840   45.7540   14.3140 C   0  0  0  0  0  0  0  0  0  0  0  0
   45.3930   45.8060   15.6820 C   0  0  0  0  0  0  0  0  0  0  0  0
   45.7300   46.9990   16.2800 C   0  0  0  0  0  0  0  0  0  0  0  0
   46.0650   47.4400   17.9720 S   0  0  0  0  0  0  0  0  0  0  0  0
   50.6670   49.1780   20.3520 C   0  0  0  0  0  0  0  0  0  0  0  0
   51.8780   48.8360   19.7430 F   0  0  0  0  0  0  0  0  0  0  0  0
   50.2040   48.0980   21.1110 F   0  0  0  0  0  0  0  0  0  0  0  0
   50.8590   50.2860   21.1840 F   0  0  0  0  0  0  0  0  0  0  0  0
   52.0680   51.0980   18.6630 N   0  0  0  0  0  0  0  0  0  0  0  0
   52.5540   50.2600   18.7110 H   0  0  0  0  0  0  0  0  0  0  0  0
   52.5210   52.2550   19.4400 C   0  0  0  0  0  0  0  0  0  0  0  0
   52.2400   53.5370   18.6540 C   0  0  0  0  0  0  0  0  0  0  0  0
   49.0850   54.1980   18.3150 C   0  0  0  0  0  0  0  0  0  0  0  0
   49.8190   54.1940   19.6570 C   0  0  1  0  0  0  0  0  0  0  0  0
   51.2990   54.4130   19.4430 C   0  0  2  0  0  0  0  0  0  0  0  0
   51.6100   55.5540   20.1000 C   0  0  0  0  0  0  0  0  0  0  0  0
   52.8660   56.2920   20.2720 C   0  0  0  0  0  0  0  0  0  0  0  0
   52.8640   57.4300   21.0030 C   0  0  0  0  0  0  0  0  0  0  0  0
   51.6940   57.9200   21.5990 C   0  0  0  0  0  0  0  0  0  0  0  0
   50.5010   57.2990   21.4850 C   0  0  0  0  0  0  0  0  0  0  0  0
   50.3880   56.0930   20.7380 C   0  0  0  0  0  0  0  0  0  0  0  0
   49.3610   55.3150   20.4870 N   0  0  0  0  0  0  0  0  0  0  0  0
   48.4530   55.4570   20.7960 H   0  0  0  0  0  0  0  0  0  0  0  0
  1  2  2  0  0  0  0
  1 22  1  0  0  0  0
  2  3  1  0  0  0  0
  3 18  1  0  0  0  0
  4  3  2  0  0  0  0
  5  4  1  0  0  0  0
  6  5  1  0  0  0  0
  6  2  1  0  0  0  0
  7  6  2  0  0  0  0
  8 17  1  0  0  0  0
  8  5  1  6  0  0  0
  9  8  1  0  0  0  0
 10  9  1  0  0  0  0
 11  9  1  0  0  0  0
 11 16  2  0  0  0  0
 12 11  1  0  0  0  0
 13 12  2  0  0  0  0
 13 14  1  0  0  0  0
 14 15  2  0  0  0  0
 15 16  1  0  0  0  0
 16 17  1  0  0  0  0
 18 20  1  0  0  0  0
 18 21  1  0  0  0  0
 19 18  1  0  0  0  0
 22 23  1  0  0  0  0
 22 24  1  0  0  0  0
 25 24  1  0  0  0  0
 27 26  1  6  0  0  0
 27 35  1  0  0  0  0
 28 25  1  6  0  0  0
 28 27  1  0  0  0  0
 28 29  1  0  0  0  0
 29 30  2  0  0  0  0
 29 34  1  0  0  0  0
 30 31  1  0  0  0  0
 31 32  2  0  0  0  0
 33 32  1  0  0  0  0
 34 33  2  0  0  0  0
 35 34  1  0  0  0  0
 35 36  1  0  0  0  0
M  END
>  <MODEL>
9

>  <REMARK>
  Name = ZINC63110755
                            x       y       z     vdW  Elec       q    Type
                         _______ _______ _______ _____ _____    ______ ____

>  <TORSDO>
F 6

>  <minimizedAffinity>
-9.6446261790476413

$$$$
ZINC26100240
 OpenBabel10211213563D

 32 34  0  0  0  0  0  0  0  0999 V2000
   50.6770   50.6140   18.4780 N   0  0  0  0  0  0  0  0  0  0  0  0
   49.5980   50.1530   17.8150 C   0  0  0  0  0  0  0  0  0  0  0  0
   49.5970   50.1120   16.1040 S   0  0  0  0  0  0  0  0  0  0  0  0
   48.5190   49.7230   18.5000 N   0  0  0  0  0  0  0  0  0  0  0  0
   48.0270   50.3890   19.2250 H   0  0  0  0  0  0  0  0  0  0  0  0
   48.0020   48.3710   18.2790 C   0  0  0  0  0  0  0  0  0  0  0  0
   46.4730   48.3980   18.3150 C   0  0  0  0  0  0  0  0  0  0  0  0
   45.9560   49.4140   17.2950 C   0  0  0  0  0  0  0  0  0  0  0  0
   45.3170   48.7060   16.1780 N   0  0  0  0  0  0  0  0  0  0  0  0
   44.6430   47.4860   16.6450 C   0  0  0  0  0  0  0  0  0  0  0  0
   43.9410   46.8140   15.4610 C   0  0  0  0  0  0  0  0  0  0  0  0
   44.9010   46.5430   14.4360 O   0  0  0  0  0  0  0  0  0  0  0  0
   45.5780   47.7080   13.9590 C   0  0  0  0  0  0  0  0  0  0  0  0
   46.2950   48.3900   15.1260 C   0  0  0  0  0  0  0  0  0  0  0  0
   51.4470   51.7360   17.9340 C   0  0  0  0  0  0  0  0  0  0  0  0
   48.7820   58.2370   21.7090 C   0  0  0  0  0  0  0  0  0  0  0  0
   49.0640   56.9780   20.9290 C   0  0  0  0  0  0  0  0  0  0  0  0
   48.0260   56.3290   20.2750 C   0  0  0  0  0  0  0  0  0  0  0  0
   48.2590   55.1870   19.5620 C   0  0  0  0  0  0  0  0  0  0  0  0
   49.5570   54.6690   19.4900 C   0  0  0  0  0  0  0  0  0  0  0  0
   49.8420   53.4470   18.7350 C   0  0  0  0  0  0  0  0  0  0  0  0
   51.1180   52.9900   18.7010 C   0  0  0  0  0  0  0  0  0  0  0  0
   52.1390   53.6810   19.3870 C   0  0  0  0  0  0  0  0  0  0  0  0
   51.8870   54.8080   20.0780 N   0  0  0  0  0  0  0  0  0  0  0  0
   52.7060   55.3300   20.5970 H   0  0  0  0  0  0  0  0  0  0  0  0
   53.2790   53.2510   19.3480 O   0  0  0  0  0  0  0  0  0  0  0  0
   50.6110   55.3230   20.1520 C   0  0  0  0  0  0  0  0  0  0  0  0
   50.3490   56.4840   20.8720 C   0  0  0  0  0  0  0  0  0  0  0  0
   51.0810   49.9940   19.7430 C   0  0  0  0  0  0  0  0  0  0  0  0
   52.6000   49.8220   19.7630 C   0  0  0  0  0  0  0  0  0  0  0  0
   53.1520   50.5830   20.8380 O   0  0  0  0  0  0  0  0  0  0  0  0
   53.3350   50.1070   21.8130 H   0  0  0  0  0  0  0  0  0  0  0  0
  1 29  1  0  0  0  0
  2  1  1  0  0  0  0
  2  4  1  0  0  0  0
  3  2  2  0  0  0  0
  4  5  1  0  0  0  0
  6  7  1  0  0  0  0
  6  4  1  0  0  0  0
  8  7  1  0  0  0  0
  9 10  1  0  0  0  0
  9  8  1  0  0  0  0
 11 10  1  0  0  0  0
 12 11  1  0  0  0  0
 13 12  1  0  0  0  0
 13 14  1  0  0  0  0
 14  9  1  0  0  0  0
 15  1  1  0  0  0  0
 15 22  1  0  0  0  0
 17 16  1  0  0  0  0
 18 17  2  0  0  0  0
 19 18  1  0  0  0  0
 20 19  2  0  0  0  0
 20 27  1  0  0  0  0
 21 20  1  0  0  0  0
 22 21  2  0  0  0  0
 22 23  1  0  0  0  0
 23 24  1  0  0  0  0
 24 27  1  0  0  0  0
 24 25  1  0  0  0  0
 26 23  2  0  0  0  0
 27 28  2  0  0  0  0
 28 17  1  0  0  0  0
 29 30  1  0  0  0  0
 30 31  1  0  0  0  0
 31 32  1  0  0  0  0
M  END
>  <MODEL>
1

>  <REMARK>
  Name = ZINC26100240
                            x       y       z     vdW  Elec       q    Type
                         _______ _______ _______ _____ _____    ______ ____

>  <TORSDO>
F 11

>  <minimizedAffinity>
-8.3053604829609657

$$$$
ZINC26100240
 OpenBabel10211213563D

 32 34  0  0  0  0  0  0  0  0999 V2000
   50.4850   50.7720   18.7430 N   0  0  0  0  0  0  0  0  0  0  0  0
   49.4740   50.1030   18.1510 C   0  0  0  0  0  0  0  0  0  0  0  0
   48.6790   48.8390   18.9870 S   0  0  0  0  0  0  0  0  0  0  0  0
   49.0900   50.4310   16.9020 N   0  0  0  0  0  0  0  0  0  0  0  0
   48.2570   51.1340   16.7490 H   0  0  0  0  0  0  0  0  0  0  0  0
   49.7810   49.8530   15.7470 C   0  0  0  0  0  0  0  0  0  0  0  0
   49.0440   48.5940   15.2890 C   0  0  0  0  0  0  0  0  0  0  0  0
   47.6280   48.9650   14.8430 C   0  0  0  0  0  0  0  0  0  0  0  0
   46.6490   48.2570   15.6800 N   0  0  0  0  0  0  0  0  0  0  0  0
   45.7490   47.4370   14.8560 C   0  0  0  0  0  0  0  0  0  0  0  0
   44.7870   46.6720   15.7690 C   0  0  0  0  0  0  0  0  0  0  0  0
   44.0730   47.6030   16.5880 O   0  0  0  0  0  0  0  0  0  0  0  0
   44.9190   48.4180   17.4030 C   0  0  0  0  0  0  0  0  0  0  0  0
   45.8830   49.2010   16.5070 C   0  0  0  0  0  0  0  0  0  0  0  0
   51.0560   51.9560   18.0970 C   0  0  0  0  0  0  0  0  0  0  0  0
   48.8590   58.4820   22.1210 C   0  0  0  0  0  0  0  0  0  0  0  0
   49.4540   57.2410   21.5090 C   0  0  0  0  0  0  0  0  0  0  0  0
   50.6200   56.7050   22.0390 C   0  0  0  0  0  0  0  0  0  0  0  0
   51.1760   55.5790   21.4990 C   0  0  0  0  0  0  0  0  0  0  0  0
   50.5640   54.9610   20.4040 C   0  0  0  0  0  0  0  0  0  0  0  0
   51.1330   53.7540   19.8020 C   0  0  0  0  0  0  0  0  0  0  0  0
   50.4980   53.1980   18.7410 C   0  0  0  0  0  0  0  0  0  0  0  0
   49.3170   53.7820   18.2330 C   0  0  0  0  0  0  0  0  0  0  0  0
   48.7840   54.8870   18.7850 N   0  0  0  0  0  0  0  0  0  0  0  0
   47.8580   55.3160   18.3720 H   0  0  0  0  0  0  0  0  0  0  0  0
   48.7640   53.2700   17.2760 O   0  0  0  0  0  0  0  0  0  0  0  0
   49.3820   55.5010   19.8640 C   0  0  0  0  0  0  0  0  0  0  0  0
   48.8350   56.6480   20.4300 C   0  0  0  0  0  0  0  0  0  0  0  0
   51.0110   50.3150   20.0320 C   0  0  0  0  0  0  0  0  0  0  0  0
   52.5180   50.0800   19.9120 C   0  0  0  0  0  0  0  0  0  0  0  0
   52.7890   48.6790   19.9860 O   0  0  0  0  0  0  0  0  0  0  0  0
   53.3100   48.1750   19.1590 H   0  0  0  0  0  0  0  0  0  0  0  0
  1 29  1  0  0  0  0
  2  1  1  0  0  0  0
  2  3  2  0  0  0  0
  4  2  1  0  0  0  0
  5  4  1  0  0  0  0
  6  4  1  0  0  0  0
  7  6  1  0  0  0  0
  8  7  1  0  0  0  0
  8  9  1  0  0  0  0
  9 14  1  0  0  0  0
 10  9  1  0  0  0  0
 10 11  1  0  0  0  0
 11 12  1  0  0  0  0
 12 13  1  0  0  0  0
 14 13  1  0  0  0  0
 15 22  1  0  0  0  0
 15  1  1  0  0  0  0
 17 18  1  0  0  0  0
 17 16  1  0  0  0  0
 19 18  2  0  0  0  0
 20 19  1  0  0  0  0
 21 20  1  0  0  0  0
 22 21  2  0  0  0  0
 23 22  1  0  0  0  0
 23 24  1  0  0  0  0
 24 27  1  0  0  0  0
 25 24  1  0  0  0  0
 26 23  2  0  0  0  0
 27 20  2  0  0  0  0
 27 28  1  0  0  0  0
 28 17  2  0  0  0  0
 30 31  1  0  0  0  0
 30 29  1  0  0  0  0
 32 31  1  0  0  0  0
M  END
>  <MODEL>
2

>  <REMARK>
  Name = ZINC26100240
                            x       y       z     vdW  Elec       q    Type
                         _______ _______ _______ _____ _____    ______ ____

>  <TORSDO>
F 11

>  <minimizedAffinity>
-8.1433516130661197

$$$$
ZINC26100240
 OpenBabel10211213563D

 32 34  0  0  0  0  0  0  0  0999 V2000
   49.9820   50.5270   17.4290 N   0  0  0  0  0  0  0  0  0  0  0  0
   49.3210   49.7590   18.3190 C   0  0  0  0  0  0  0  0  0  0  0  0
   50.1690   49.0230   19.6100 S   0  0  0  0  0  0  0  0  0  0  0  0
   47.9920   49.5740   18.1910 N   0  0  0  0  0  0  0  0  0  0  0  0
   47.4120   50.2030   17.5000 H   0  0  0  0  0  0  0  0  0  0  0  0
   47.3200   48.5330   18.9730 C   0  0  0  0  0  0  0  0  0  0  0  0
   46.1420   47.9750   18.1720 C   0  0  0  0  0  0  0  0  0  0  0  0
   45.5270   49.0900   17.3250 C   0  0  0  0  0  0  0  0  0  0  0  0
   45.1500   48.5560   16.0090 N   0  0  0  0  0  0  0  0  0  0  0  0
   44.4210   47.2870   16.1460 C   0  0  0  0  0  0  0  0  0  0  0  0
   43.9960   46.7980   14.7580 C   0  0  0  0  0  0  0  0  0  0  0  0
   45.1540   46.6710   13.9280 O   0  0  0  0  0  0  0  0  0  0  0  0
   45.8890   47.8870   13.7740 C   0  0  0  0  0  0  0  0  0  0  0  0
   46.3320   48.3880   15.1510 C   0  0  0  0  0  0  0  0  0  0  0  0
   51.2480   51.1610   17.8060 C   0  0  0  0  0  0  0  0  0  0  0  0
   48.9820   57.7700   21.6540 C   0  0  0  0  0  0  0  0  0  0  0  0
   49.2230   56.5570   20.7930 C   0  0  0  0  0  0  0  0  0  0  0  0
   48.3470   56.2670   19.7550 C   0  0  0  0  0  0  0  0  0  0  0  0
   48.5470   55.1720   18.9620 C   0  0  0  0  0  0  0  0  0  0  0  0
   49.6440   54.3380   19.1970 C   0  0  0  0  0  0  0  0  0  0  0  0
   49.8880   53.1570   18.3660 C   0  0  0  0  0  0  0  0  0  0  0  0
   50.9680   52.3840   18.6410 C   0  0  0  0  0  0  0  0  0  0  0  0
   51.8270   52.7160   19.7100 C   0  0  0  0  0  0  0  0  0  0  0  0
   51.6140   53.8030   20.4740 N   0  0  0  0  0  0  0  0  0  0  0  0
   52.3060   54.0410   21.2960 H   0  0  0  0  0  0  0  0  0  0  0  0
   52.7890   52.0050   19.9440 O   0  0  0  0  0  0  0  0  0  0  0  0
   50.5340   54.6290   20.2480 C   0  0  0  0  0  0  0  0  0  0  0  0
   50.3100   55.7480   21.0420 C   0  0  0  0  0  0  0  0  0  0  0  0
   49.4360   50.7260   16.0840 C   0  0  0  0  0  0  0  0  0  0  0  0
   50.0070   49.6660   15.1400 C   0  0  0  0  0  0  0  0  0  0  0  0
   51.0950   50.2220   14.4010 O   0  0  0  0  0  0  0  0  0  0  0  0
   51.4010   49.7680   13.4470 H   0  0  0  0  0  0  0  0  0  0  0  0
  1 15  1  0  0  0  0
  1  2  1  0  0  0  0
  2  3  2  0  0  0  0
  4  2  1  0  0  0  0
  4  6  1  0  0  0  0
  5  4  1  0  0  0  0
  7  6  1  0  0  0  0
  8  7  1  0  0  0  0
  9 10  1  0  0  0  0
  9  8  1  0  0  0  0
 11 10  1  0  0  0  0
 12 11  1  0  0  0  0
 13 12  1  0  0  0  0
 13 14  1  0  0  0  0
 14  9  1  0  0  0  0
 15 22  1  0  0  0  0
 17 28  1  0  0  0  0
 17 16  1  0  0  0  0
 18 17  2  0  0  0  0
 19 20  2  0  0  0  0
 19 18  1  0  0  0  0
 20 27  1  0  0  0  0
 21 22  2  0  0  0  0
 21 20  1  0  0  0  0
 22 23  1  0  0  0  0
 23 26  2  0  0  0  0
 23 24  1  0  0  0  0
 24 25  1  0  0  0  0
 27 24  1  0  0  0  0
 27 28  2  0  0  0  0
 29  1  1  0  0  0  0
 30 29  1  0  0  0  0
 31 30  1  0  0  0  0
 32 31  1  0  0  0  0
M  END
>  <MODEL>
3

>  <REMARK>
  Name = ZINC26100240
                            x       y       z     vdW  Elec       q    Type
                         _______ _______ _______ _____ _____    ______ ____

>  <TORSDO>
F 11

>  <minimizedAffinity>
-7.82279139402051

$$$$
ZINC26100240
 OpenBabel10211213563D

 32 34  0  0  0  0  0  0  0  0999 V2000
   51.3770   53.9830   20.6560 N   0  0  0  0  0  0  0  0  0  0  0  0
   52.1730   52.9960   20.1970 C   0  0  0  0  0  0  0  0  0  0  0  0
   52.9520   53.1600   18.6820 S   0  0  0  0  0  0  0  0  0  0  0  0
   52.3550   51.8810   20.9320 N   0  0  0  0  0  0  0  0  0  0  0  0
   52.5180   51.9580   22.0180 H   0  0  0  0  0  0  0  0  0  0  0  0
   52.3360   50.5660   20.2860 C   0  0  0  0  0  0  0  0  0  0  0  0
   50.8870   50.1200   20.0830 C   0  0  0  0  0  0  0  0  0  0  0  0
   50.4760   50.3690   18.6300 C   0  0  0  0  0  0  0  0  0  0  0  0
   49.0260   50.1720   18.4910 N   0  0  0  0  0  0  0  0  0  0  0  0
   48.6530   48.7840   18.7990 C   0  0  0  0  0  0  0  0  0  0  0  0
   47.1310   48.6380   18.7000 C   0  0  0  0  0  0  0  0  0  0  0  0
   46.7030   49.0370   17.3950 O   0  0  0  0  0  0  0  0  0  0  0  0
   47.0510   50.3830   17.0620 C   0  0  0  0  0  0  0  0  0  0  0  0
   48.5710   50.5470   17.1440 C   0  0  0  0  0  0  0  0  0  0  0  0
   49.9220   53.8190   20.6380 C   0  0  0  0  0  0  0  0  0  0  0  0
   46.5320   60.3320   17.5210 C   0  0  0  0  0  0  0  0  0  0  0  0
   47.1520   59.2110   18.3140 C   0  0  0  0  0  0  0  0  0  0  0  0
   47.2870   59.3360   19.6910 C   0  0  0  0  0  0  0  0  0  0  0  0
   47.8460   58.3320   20.4290 C   0  0  0  0  0  0  0  0  0  0  0  0
   48.2850   57.1660   19.7930 C   0  0  0  0  0  0  0  0  0  0  0  0
   48.8880   56.0710   20.5550 C   0  0  0  0  0  0  0  0  0  0  0  0
   49.2970   54.9650   19.8850 C   0  0  0  0  0  0  0  0  0  0  0  0
   49.1430   54.8850   18.4840 C   0  0  0  0  0  0  0  0  0  0  0  0
   48.5840   55.8840   17.7780 N   0  0  0  0  0  0  0  0  0  0  0  0
   48.4710   55.7890   16.6870 H   0  0  0  0  0  0  0  0  0  0  0  0
   49.5210   53.8840   17.9010 O   0  0  0  0  0  0  0  0  0  0  0  0
   48.1500   57.0350   18.3990 C   0  0  0  0  0  0  0  0  0  0  0  0
   47.5780   58.0710   17.6680 C   0  0  0  0  0  0  0  0  0  0  0  0
   51.9680   55.2190   21.1750 C   0  0  0  0  0  0  0  0  0  0  0  0
   51.7370   55.3010   22.6850 C   0  0  0  0  0  0  0  0  0  0  0  0
   51.3840   56.6380   23.0420 O   0  0  0  0  0  0  0  0  0  0  0  0
   51.0040   56.8550   24.0520 H   0  0  0  0  0  0  0  0  0  0  0  0
  1 29  1  0  0  0  0
  2  1  1  0  0  0  0
  2  4  1  0  0  0  0
  3  2  2  0  0  0  0
  4  5  1  0  0  0  0
  6  4  1  0  0  0  0
  7  6  1  0  0  0  0
  8  7  1  0  0  0  0
  9  8  1  0  0  0  0
  9 10  1  0  0  0  0
 11 10  1  0  0  0  0
 12 11  1  0  0  0  0
 13 14  1  0  0  0  0
 13 12  1  0  0  0  0
 14  9  1  0  0  0  0
 15  1  1  0  0  0  0
 16 17  1  0  0  0  0
 17 18  1  0  0  0  0
 18 19  2  0  0  0  0
 20 19  1  0  0  0  0
 20 21  1  0  0  0  0
 22 21  2  0  0  0  0
 22 15  1  0  0  0  0
 23 22  1  0  0  0  0
 24 27  1  0  0  0  0
 24 23  1  0  0  0  0
 25 24  1  0  0  0  0
 26 23  2  0  0  0  0
 27 20  2  0  0  0  0
 28 17  2  0  0  0  0
 28 27  1  0  0  0  0
 29 30  1  0  0  0  0
 30 31  1  0  0  0  0
 31 32  1  0  0  0  0
M  END
>  <MODEL>
4

>  <REMARK>
  Name = ZINC26100240
                            x       y       z     vdW  Elec       q    Type
                         _______ _______ _______ _____ _____    ______ ____

>  <TORSDO>
F 11

>  <minimizedAffinity>
-7.8033842740837827

$$$$
ZINC26100240
 OpenBabel10211213563D

 32 34  0  0  0  0  0  0  0  0999 V2000
   51.0180   51.2100   18.8620 N   0  0  0  0  0  0  0  0  0  0  0  0
   50.6910   50.6460   20.0410 C   0  0  0  0  0  0  0  0  0  0  0  0
   50.4220   48.9580   20.1380 S   0  0  0  0  0  0  0  0  0  0  0  0
   50.5760   51.4110   21.1460 N   0  0  0  0  0  0  0  0  0  0  0  0
   49.5960   51.5320   21.6310 H   0  0  0  0  0  0  0  0  0  0  0  0
   51.7550   52.0790   21.7000 C   0  0  0  0  0  0  0  0  0  0  0  0
   51.4090   53.5320   22.0320 C   0  0  0  0  0  0  0  0  0  0  0  0
   51.9000   54.4430   20.9050 C   0  0  0  0  0  0  0  0  0  0  0  0
   50.9690   55.5680   20.7440 N   0  0  0  0  0  0  0  0  0  0  0  0
   50.9180   56.3870   21.9640 C   0  0  0  0  0  0  0  0  0  0  0  0
   49.9840   57.5790   21.7320 C   0  0  0  0  0  0  0  0  0  0  0  0
   48.6930   57.0990   21.3470 O   0  0  0  0  0  0  0  0  0  0  0  0
   48.7060   56.2980   20.1640 C   0  0  0  0  0  0  0  0  0  0  0  0
   49.6260   55.0930   20.3790 C   0  0  0  0  0  0  0  0  0  0  0  0
   50.0010   51.9230   18.0840 C   0  0  0  0  0  0  0  0  0  0  0  0
   44.7660   46.8550   14.8390 C   0  0  0  0  0  0  0  0  0  0  0  0
   45.5870   47.8580   15.6070 C   0  0  0  0  0  0  0  0  0  0  0  0
   45.0380   48.4910   16.7150 C   0  0  0  0  0  0  0  0  0  0  0  0
   45.7650   49.4040   17.4250 C   0  0  0  0  0  0  0  0  0  0  0  0
   47.0740   49.7030   17.0340 C   0  0  0  0  0  0  0  0  0  0  0  0
   47.8810   50.6760   17.7730 C   0  0  0  0  0  0  0  0  0  0  0  0
   49.1440   50.9270   17.3470 C   0  0  0  0  0  0  0  0  0  0  0  0
   49.6560   50.2630   16.2120 C   0  0  0  0  0  0  0  0  0  0  0  0
   48.9240   49.3630   15.5310 N   0  0  0  0  0  0  0  0  0  0  0  0
   49.3540   48.8550   14.6540 H   0  0  0  0  0  0  0  0  0  0  0  0
   50.7920   50.5060   15.8430 O   0  0  0  0  0  0  0  0  0  0  0  0
   47.6340   49.0640   15.9120 C   0  0  0  0  0  0  0  0  0  0  0  0
   46.8750   48.1390   15.2040 C   0  0  0  0  0  0  0  0  0  0  0  0
   52.3900   51.1120   18.3580 C   0  0  0  0  0  0  0  0  0  0  0  0
   52.9480   52.5170   18.1220 C   0  0  0  0  0  0  0  0  0  0  0  0
   53.6670   52.5440   16.8880 O   0  0  0  0  0  0  0  0  0  0  0  0
   53.9080   53.5060   16.4130 H   0  0  0  0  0  0  0  0  0  0  0  0
  1  2  1  0  0  0  0
  2  3  2  0  0  0  0
  2  4  1  0  0  0  0
  4  5  1  0  0  0  0
  4  6  1  0  0  0  0
  6  7  1  0  0  0  0
  8  7  1  0  0  0  0
  9  8  1  0  0  0  0
  9 10  1  0  0  0  0
 11 10  1  0  0  0  0
 12 11  1  0  0  0  0
 13 14  1  0  0  0  0
 13 12  1  0  0  0  0
 14  9  1  0  0  0  0
 15  1  1  0  0  0  0
 16 17  1  0  0  0  0
 17 18  1  0  0  0  0
 18 19  2  0  0  0  0
 20 19  1  0  0  0  0
 20 21  1  0  0  0  0
 22 21  2  0  0  0  0
 22 15  1  0  0  0  0
 23 22  1  0  0  0  0
 24 27  1  0  0  0  0
 24 23  1  0  0  0  0
 25 24  1  0  0  0  0
 26 23  2  0  0  0  0
 27 20  2  0  0  0  0
 28 17  2  0  0  0  0
 28 27  1  0  0  0  0
 29  1  1  0  0  0  0
 30 29  1  0  0  0  0
 31 30  1  0  0  0  0
 32 31  1  0  0  0  0
M  END
>  <MODEL>
5

>  <REMARK>
  Name = ZINC26100240
                            x       y       z     vdW  Elec       q    Type
                         _______ _______ _______ _____ _____    ______ ____

>  <TORSDO>
F 11

>  <minimizedAffinity>
-7.5142282625623311

$$$$
ZINC26100240
 OpenBabel10211213563D

 32 34  0  0  0  0  0  0  0  0999 V2000
   50.0710   53.6920   19.6570 N   0  0  0  0  0  0  0  0  0  0  0  0
   49.3740   54.8370   19.5200 C   0  0  0  0  0  0  0  0  0  0  0  0
   48.9040   55.3730   17.9640 S   0  0  0  0  0  0  0  0  0  0  0  0
   49.0450   55.5600   20.6100 N   0  0  0  0  0  0  0  0  0  0  0  0
   49.3700   55.2300   21.6080 H   0  0  0  0  0  0  0  0  0  0  0  0
   48.2570   56.7860   20.4650 C   0  0  0  0  0  0  0  0  0  0  0  0
   49.1400   57.9990   20.7630 C   0  0  0  0  0  0  0  0  0  0  0  0
   50.2410   57.5980   21.7470 C   0  0  0  0  0  0  0  0  0  0  0  0
   51.5460   57.6630   21.0740 N   0  0  0  0  0  0  0  0  0  0  0  0
   52.1400   56.3240   20.9480 C   0  0  0  0  0  0  0  0  0  0  0  0
   53.4670   56.4300   20.1900 C   0  0  0  0  0  0  0  0  0  0  0  0
   54.3290   57.3430   20.8740 O   0  0  0  0  0  0  0  0  0  0  0  0
   53.7820   58.6560   21.0150 C   0  0  0  0  0  0  0  0  0  0  0  0
   52.4590   58.5730   21.7810 C   0  0  0  0  0  0  0  0  0  0  0  0
   50.6660   53.0520   18.4810 C   0  0  0  0  0  0  0  0  0  0  0  0
   46.2270   46.6280   16.8550 C   0  0  0  0  0  0  0  0  0  0  0  0
   46.8770   47.9640   17.1030 C   0  0  0  0  0  0  0  0  0  0  0  0
   46.1520   49.1300   16.8930 C   0  0  0  0  0  0  0  0  0  0  0  0
   46.7220   50.3530   17.1110 C   0  0  0  0  0  0  0  0  0  0  0  0
   48.0470   50.4300   17.5520 C   0  0  0  0  0  0  0  0  0  0  0  0
   48.6880   51.7240   17.7960 C   0  0  0  0  0  0  0  0  0  0  0  0
   49.9760   51.7380   18.2200 C   0  0  0  0  0  0  0  0  0  0  0  0
   50.6740   50.5270   18.4150 C   0  0  0  0  0  0  0  0  0  0  0  0
   50.0910   49.3350   18.1990 N   0  0  0  0  0  0  0  0  0  0  0  0
   50.6590   48.4070   18.3670 H   0  0  0  0  0  0  0  0  0  0  0  0
   51.8320   50.5630   18.7920 O   0  0  0  0  0  0  0  0  0  0  0  0
   48.7860   49.2520   17.7650 C   0  0  0  0  0  0  0  0  0  0  0  0
   48.1840   48.0190   17.5360 C   0  0  0  0  0  0  0  0  0  0  0  0
   50.2350   53.0870   20.9810 C   0  0  0  0  0  0  0  0  0  0  0  0
   51.7220   52.8550   21.2550 C   0  0  0  0  0  0  0  0  0  0  0  0
   51.9130   51.5350   21.7660 O   0  0  0  0  0  0  0  0  0  0  0  0
   51.7050   51.3200   22.8250 H   0  0  0  0  0  0  0  0  0  0  0  0
  1 29  1  0  0  0  0
  2  1  1  0  0  0  0
  2  4  1  0  0  0  0
  3  2  2  0  0  0  0
  4  5  1  0  0  0  0
  6  4  1  0  0  0  0
  6  7  1  0  0  0  0
  7  8  1  0  0  0  0
  9  8  1  0  0  0  0
  9 14  1  0  0  0  0
 10  9  1  0  0  0  0
 11 12  1  0  0  0  0
 11 10  1  0  0  0  0
 12 13  1  0  0  0  0
 13 14  1  0  0  0  0
 15  1  1  0  0  0  0
 16 17  1  0  0  0  0
 17 28  1  0  0  0  0
 18 17  2  0  0  0  0
 18 19  1  0  0  0  0
 19 20  2  0  0  0  0
 20 27  1  0  0  0  0
 20 21  1  0  0  0  0
 21 22  2  0  0  0  0
 22 23  1  0  0  0  0
 22 15  1  0  0  0  0
 23 26  2  0  0  0  0
 24 25  1  0  0  0  0
 24 23  1  0  0  0  0
 27 24  1  0  0  0  0
 28 27  2  0  0  0  0
 29 30  1  0  0  0  0
 30 31  1  0  0  0  0
 31 32  1  0  0  0  0
M  END
>  <MODEL>
6

>  <REMARK>
  Name = ZINC26100240
                            x       y       z     vdW  Elec       q    Type
                         _______ _______ _______ _____ _____    ______ ____

>  <TORSDO>
F 11

>  <minimizedAffinity>
-7.4052981825967699

$$$$
ZINC26100240
 OpenBabel10211213563D

 32 34  0  0  0  0  0  0  0  0999 V2000
   51.2860   55.7370   20.5760 N   0  0  0  0  0  0  0  0  0  0  0  0
   51.6710   54.4530   20.4290 C   0  0  0  0  0  0  0  0  0  0  0  0
   51.6430   53.3910   21.7700 S   0  0  0  0  0  0  0  0  0  0  0  0
   52.0770   54.0060   19.2230 N   0  0  0  0  0  0  0  0  0  0  0  0
   51.8240   54.5700   18.3130 H   0  0  0  0  0  0  0  0  0  0  0  0
   52.8580   52.7700   19.1260 C   0  0  0  0  0  0  0  0  0  0  0  0
   52.1830   51.8190   18.1360 C   0  0  0  0  0  0  0  0  0  0  0  0
   50.9290   51.2220   18.7760 C   0  0  0  0  0  0  0  0  0  0  0  0
   49.8640   51.1240   17.7690 N   0  0  0  0  0  0  0  0  0  0  0  0
   49.1790   52.4140   17.6000 C   0  0  0  0  0  0  0  0  0  0  0  0
   48.1200   52.2830   16.5020 C   0  0  0  0  0  0  0  0  0  0  0  0
   47.2140   51.2300   16.8430 O   0  0  0  0  0  0  0  0  0  0  0  0
   47.8470   49.9600   17.0160 C   0  0  0  0  0  0  0  0  0  0  0  0
   48.9030   50.0660   18.1190 C   0  0  0  0  0  0  0  0  0  0  0  0
   49.9340   56.0470   21.0480 C   0  0  0  0  0  0  0  0  0  0  0  0
   45.9490   58.4100   14.5550 C   0  0  0  0  0  0  0  0  0  0  0  0
   46.7620   57.7770   15.6550 C   0  0  0  0  0  0  0  0  0  0  0  0
   47.3930   56.5600   15.4300 C   0  0  0  0  0  0  0  0  0  0  0  0
   48.1340   55.9690   16.4140 C   0  0  0  0  0  0  0  0  0  0  0  0
   48.2600   56.5960   17.6580 C   0  0  0  0  0  0  0  0  0  0  0  0
   49.0470   55.9900   18.7330 C   0  0  0  0  0  0  0  0  0  0  0  0
   49.1330   56.6420   19.9190 C   0  0  0  0  0  0  0  0  0  0  0  0
   48.4690   57.8740   20.1030 C   0  0  0  0  0  0  0  0  0  0  0  0
   47.7490   58.4410   19.1180 N   0  0  0  0  0  0  0  0  0  0  0  0
   47.2500   59.4070   19.2880 H   0  0  0  0  0  0  0  0  0  0  0  0
   48.5560   58.4420   21.1780 O   0  0  0  0  0  0  0  0  0  0  0  0
   47.6220   57.8280   17.8900 C   0  0  0  0  0  0  0  0  0  0  0  0
   46.8720   58.4110   16.8740 C   0  0  0  0  0  0  0  0  0  0  0  0
   52.2200   56.8230   20.2650 C   0  0  0  0  0  0  0  0  0  0  0  0
   52.4180   57.6950   21.5060 C   0  0  0  0  0  0  0  0  0  0  0  0
   53.1040   56.9470   22.5110 O   0  0  0  0  0  0  0  0  0  0  0  0
   54.2030   56.9480   22.5430 H   0  0  0  0  0  0  0  0  0  0  0  0
  1 15  1  0  0  0  0
  2  1  1  0  0  0  0
  2  3  2  0  0  0  0
  4  2  1  0  0  0  0
  5  4  1  0  0  0  0
  6  4  1  0  0  0  0
  7  8  1  0  0  0  0
  7  6  1  0  0  0  0
  9 14  1  0  0  0  0
  9  8  1  0  0  0  0
 10  9  1  0  0  0  0
 11 12  1  0  0  0  0
 11 10  1  0  0  0  0
 12 13  1  0  0  0  0
 13 14  1  0  0  0  0
 16 17  1  0  0  0  0
 17 28  1  0  0  0  0
 18 17  2  0  0  0  0
 18 19  1  0  0  0  0
 19 20  2  0  0  0  0
 20 27  1  0  0  0  0
 20 21  1  0  0  0  0
 21 22  2  0  0  0  0
 22 23  1  0  0  0  0
 22 15  1  0  0  0  0
 23 26  2  0  0  0  0
 24 25  1  0  0  0  0
 24 23  1  0  0  0  0
 27 24  1  0  0  0  0
 28 27  2  0  0  0  0
 29  1  1  0  0  0  0
 29 30  1  0  0  0  0
 30 31  1  0  0  0  0
 31 32  1  0  0  0  0
M  END
>  <MODEL>
7

>  <REMARK>
  Name = ZINC26100240
                            x       y       z     vdW  Elec       q    Type
                         _______ _______ _______ _____ _____    ______ ____

>  <TORSDO>
F 11

>  <minimizedAffinity>
-7.3257841869982467

$$$$
ZINC26100240
 OpenBabel10211213563D

 32 34  0  0  0  0  0  0  0  0999 V2000
   51.2500   50.9770   18.5910 N   0  0  0  0  0  0  0  0  0  0  0  0
   51.3050   50.6950   17.2740 C   0  0  0  0  0  0  0  0  0  0  0  0
   52.8150   50.6600   16.4680 S   0  0  0  0  0  0  0  0  0  0  0  0
   50.1710   50.4390   16.5920 N   0  0  0  0  0  0  0  0  0  0  0  0
   49.1930   50.6400   17.0550 H   0  0  0  0  0  0  0  0  0  0  0  0
   50.2390   49.8940   15.2340 C   0  0  0  0  0  0  0  0  0  0  0  0
   49.1760   48.8080   15.0660 C   0  0  0  0  0  0  0  0  0  0  0  0
   47.8050   49.4610   14.8820 C   0  0  0  0  0  0  0  0  0  0  0  0
   46.8110   48.7550   15.7030 N   0  0  0  0  0  0  0  0  0  0  0  0
   46.3810   49.5840   16.8380 C   0  0  0  0  0  0  0  0  0  0  0  0
   45.3040   48.8360   17.6290 C   0  0  0  0  0  0  0  0  0  0  0  0
   45.8220   47.5700   18.0490 O   0  0  0  0  0  0  0  0  0  0  0  0
   46.2520   46.7380   16.9700 C   0  0  0  0  0  0  0  0  0  0  0  0
   47.3370   47.4640   16.1710 C   0  0  0  0  0  0  0  0  0  0  0  0
   52.1400   51.9920   19.1610 C   0  0  0  0  0  0  0  0  0  0  0  0
   47.5590   58.3720   20.5530 C   0  0  0  0  0  0  0  0  0  0  0  0
   48.3550   57.1870   20.0690 C   0  0  0  0  0  0  0  0  0  0  0  0
   48.3080   56.8310   18.7270 C   0  0  0  0  0  0  0  0  0  0  0  0
   49.0220   55.7610   18.2670 C   0  0  0  0  0  0  0  0  0  0  0  0
   49.8080   55.0190   19.1550 C   0  0  0  0  0  0  0  0  0  0  0  0
   50.5850   53.8660   18.6940 C   0  0  0  0  0  0  0  0  0  0  0  0
   51.3280   53.1830   19.6000 C   0  0  0  0  0  0  0  0  0  0  0  0
   51.3400   53.5800   20.9540 C   0  0  0  0  0  0  0  0  0  0  0  0
   50.6340   54.6410   21.3840 N   0  0  0  0  0  0  0  0  0  0  0  0
   50.6690   54.9310   22.4460 H   0  0  0  0  0  0  0  0  0  0  0  0
   52.0110   52.9500   21.7530 O   0  0  0  0  0  0  0  0  0  0  0  0
   49.8580   55.3760   20.5150 C   0  0  0  0  0  0  0  0  0  0  0  0
   49.1220   56.4690   20.9600 C   0  0  0  0  0  0  0  0  0  0  0  0
   50.3000   50.2700   19.4540 C   0  0  0  0  0  0  0  0  0  0  0  0
   51.0670   49.4470   20.4900 C   0  0  0  0  0  0  0  0  0  0  0  0
   50.9170   50.0430   21.7790 O   0  0  0  0  0  0  0  0  0  0  0  0
   50.7550   49.4080   22.6630 H   0  0  0  0  0  0  0  0  0  0  0  0
  1 15  1  0  0  0  0
  1 29  1  0  0  0  0
  2  1  1  0  0  0  0
  3  2  2  0  0  0  0
  4  5  1  0  0  0  0
  4  2  1  0  0  0  0
  6  4  1  0  0  0  0
  7  6  1  0  0  0  0
  8  7  1  0  0  0  0
  8  9  1  0  0  0  0
  9 14  1  0  0  0  0
  9 10  1  0  0  0  0
 10 11  1  0  0  0  0
 11 12  1  0  0  0  0
 13 12  1  0  0  0  0
 14 13  1  0  0  0  0
 15 22  1  0  0  0  0
 17 16  1  0  0  0  0
 17 28  2  0  0  0  0
 18 17  1  0  0  0  0
 19 18  2  0  0  0  0
 19 20  1  0  0  0  0
 20 27  2  0  0  0  0
 21 20  1  0  0  0  0
 21 22  2  0  0  0  0
 22 23  1  0  0  0  0
 23 24  1  0  0  0  0
 23 26  2  0  0  0  0
 24 25  1  0  0  0  0
 27 28  1  0  0  0  0
 27 24  1  0  0  0  0
 29 30  1  0  0  0  0
 30 31  1  0  0  0  0
 31 32  1  0  0  0  0
M  END
>  <MODEL>
8

>  <REMARK>
  Name = ZINC26100240
                            x       y       z     vdW  Elec       q    Type
                         _______ _______ _______ _____ _____    ______ ____

>  <TORSDO>
F 11

>  <minimizedAffinity>
-7.0420756836943221

$$$$
ZINC26100240
 OpenBabel10211213563D

 32 34  0  0  0  0  0  0  0  0999 V2000
   50.8740   54.8880   19.5660 N   0  0  0  0  0  0  0  0  0  0  0  0
   50.9680   53.6560   19.0280 C   0  0  0  0  0  0  0  0  0  0  0  0
   52.5050   52.9920   18.6720 S   0  0  0  0  0  0  0  0  0  0  0  0
   49.8510   52.9460   18.7710 N   0  0  0  0  0  0  0  0  0  0  0  0
   49.5500   52.1300   19.4460 H   0  0  0  0  0  0  0  0  0  0  0  0
   49.0370   53.2600   17.5950 C   0  0  0  0  0  0  0  0  0  0  0  0
   48.8290   51.9920   16.7660 C   0  0  0  0  0  0  0  0  0  0  0  0
   49.0490   50.7630   17.6490 C   0  0  0  0  0  0  0  0  0  0  0  0
   48.8450   49.5440   16.8540 N   0  0  0  0  0  0  0  0  0  0  0  0
   47.6750   49.6800   15.9740 C   0  0  0  0  0  0  0  0  0  0  0  0
   47.5360   48.4150   15.1220 C   0  0  0  0  0  0  0  0  0  0  0  0
   47.4370   47.2760   15.9820 O   0  0  0  0  0  0  0  0  0  0  0  0
   48.5590   47.1140   16.8530 C   0  0  0  0  0  0  0  0  0  0  0  0
   48.7090   48.3650   17.7220 C   0  0  0  0  0  0  0  0  0  0  0  0
   49.8040   55.1910   20.5200 C   0  0  0  0  0  0  0  0  0  0  0  0
   45.8360   61.3550   17.3770 C   0  0  0  0  0  0  0  0  0  0  0  0
   46.5460   60.0850   17.7670 C   0  0  0  0  0  0  0  0  0  0  0  0
   46.6250   59.0350   16.8600 C   0  0  0  0  0  0  0  0  0  0  0  0
   47.2640   57.8750   17.1930 C   0  0  0  0  0  0  0  0  0  0  0  0
   47.8460   57.7430   18.4580 C   0  0  0  0  0  0  0  0  0  0  0  0
   48.5390   56.5130   18.8470 C   0  0  0  0  0  0  0  0  0  0  0  0
   49.0840   56.4420   20.0870 C   0  0  0  0  0  0  0  0  0  0  0  0
   48.9740   57.5320   20.9760 C   0  0  0  0  0  0  0  0  0  0  0  0
   48.3450   58.6680   20.6240 N   0  0  0  0  0  0  0  0  0  0  0  0
   48.2820   59.5050   21.3370 H   0  0  0  0  0  0  0  0  0  0  0  0
   49.4660   57.4460   22.0870 O   0  0  0  0  0  0  0  0  0  0  0  0
   47.7690   58.8040   19.3800 C   0  0  0  0  0  0  0  0  0  0  0  0
   47.1130   59.9750   19.0180 C   0  0  0  0  0  0  0  0  0  0  0  0
   51.8420   55.9250   19.1980 C   0  0  0  0  0  0  0  0  0  0  0  0
   52.6510   56.3270   20.4320 C   0  0  0  0  0  0  0  0  0  0  0  0
   52.3370   57.6730   20.7920 O   0  0  0  0  0  0  0  0  0  0  0  0
   52.2210   58.4380   20.0100 H   0  0  0  0  0  0  0  0  0  0  0  0
  1 15  1  0  0  0  0
  2  1  1  0  0  0  0
  3  2  2  0  0  0  0
  4  2  1  0  0  0  0
  4  5  1  0  0  0  0
  6  4  1  0  0  0  0
  7  6  1  0  0  0  0
  7  8  1  0  0  0  0
  9  8  1  0  0  0  0
  9 14  1  0  0  0  0
 10  9  1  0  0  0  0
 11 10  1  0  0  0  0
 11 12  1  0  0  0  0
 12 13  1  0  0  0  0
 13 14  1  0  0  0  0
 16 17  1  0  0  0  0
 17 28  2  0  0  0  0
 18 19  2  0  0  0  0
 18 17  1  0  0  0  0
 19 20  1  0  0  0  0
 20 21  1  0  0  0  0
 20 27  2  0  0  0  0
 21 22  2  0  0  0  0
 22 15  1  0  0  0  0
 22 23  1  0  0  0  0
 23 26  2  0  0  0  0
 24 23  1  0  0  0  0
 24 25  1  0  0  0  0
 27 24  1  0  0  0  0
 28 27  1  0  0  0  0
 29  1  1  0  0  0  0
 29 30  1  0  0  0  0
 30 31  1  0  0  0  0
 32 31  1  0  0  0  0
M  END
>  <MODEL>
9

>  <REMARK>
  Name = ZINC26100240
                            x       y       z     vdW  Elec       q    Type
                         _______ _______ _______ _____ _____    ______ ____

>  <TORSDO>
F 11

>  <minimizedAffinity>
-6.9587685271762947

$$$$
ZINC03124783
 OpenBabel10211213563D

 16 17  0  0  1  0  0  0  0  0999 V2000
   51.2930   52.5880   21.6120 C   0  0  0  0  0  0  0  0  0  0  0  0
   50.7340   51.6870   20.4870 C   0  0  1  0  0  0  0  0  0  0  0  0
   50.9450   52.2710   19.0780 C   0  0  2  0  0  0  0  0  0  0  0  0
   52.0160   50.9790   18.3230 S   0  0  0  0  0  0  0  0  0  0  0  0
   52.3790   50.0530   19.8100 C   0  0  1  0  0  0  0  0  0  0  0  0
   53.4070   49.2910   20.0660 N   0  0  0  0  0  0  0  0  0  0  0  0
   53.4770   48.8440   20.9240 H   0  0  0  0  0  0  0  0  0  0  0  0
   54.1000   49.1720   19.3990 H   0  0  0  0  0  0  0  0  0  0  0  0
   51.6940   53.6200   19.0790 C   0  0  0  0  0  0  0  0  0  0  0  0
   51.3080   50.3540   20.6120 N   0  0  0  0  0  0  0  0  0  0  0  0
   51.3220   54.2360   20.7810 S   0  0  0  0  0  0  0  0  0  0  0  0
   50.0190   54.8020   20.8070 O   0  0  0  0  0  0  0  0  0  0  0  0
   52.4280   54.9870   21.2600 O   0  0  0  0  0  0  0  0  0  0  0  0
   50.8080   49.4330   21.4890 N   0  0  0  0  0  0  0  0  0  0  0  0
   50.5510   49.8680   22.3620 H   0  0  0  0  0  0  0  0  0  0  0  0
   51.4650   48.6830   21.6390 H   0  0  0  0  0  0  0  0  0  0  0  0
  2 10  1  6  0  0  0
  2  1  1  0  0  0  0
  3  4  1  1  0  0  0
  3  9  1  0  0  0  0
  3  2  1  0  0  0  0
  4  5  1  0  0  0  0
  5  6  1  1  0  0  0
  5 10  1  0  0  0  0
  6  7  1  0  0  0  0
  8  6  1  0  0  0  0
  9 11  1  0  0  0  0
 10 14  1  0  0  0  0
 11 12  2  0  0  0  0
 11 13  2  0  0  0  0
 11  1  1  0  0  0  0
 14 16  1  0  0  0  0
 14 15  1  0  0  0  0
M  END
>  <MODEL>
1

>  <REMARK>
  Name = ZINC03124783
                            x       y       z     vdW  Elec       q    Type
                         _______ _______ _______ _____ _____    ______ ____

>  <TORSDO>
F 1

>  <minimizedAffinity>
-5.646519788541716

$$$$
ZINC03124783
 OpenBabel10211213563D

 16 17  0  0  1  0  0  0  0  0999 V2000
   50.6130   49.7910   18.5920 C   0  0  0  0  0  0  0  0  0  0  0  0
   51.9000   50.6480   18.6080 C   0  0  1  0  0  0  0  0  0  0  0  0
   51.6480   52.1310   18.2780 C   0  0  2  0  0  0  0  0  0  0  0  0
   52.1950   52.9320   19.8420 S   0  0  0  0  0  0  0  0  0  0  0  0
   52.3580   51.4550   20.8380 C   0  0  1  0  0  0  0  0  0  0  0  0
   52.2870   51.3340   22.1350 N   0  0  0  0  0  0  0  0  0  0  0  0
   52.3950   50.4620   22.5470 H   0  0  0  0  0  0  0  0  0  0  0  0
   52.1260   52.1150   22.6860 H   0  0  0  0  0  0  0  0  0  0  0  0
   50.1610   52.4600   18.0290 C   0  0  0  0  0  0  0  0  0  0  0  0
   52.5690   50.4860   19.8920 N   0  0  0  0  0  0  0  0  0  0  0  0
   49.5090   50.8080   17.5170 S   0  0  0  0  0  0  0  0  0  0  0  0
   49.8290   50.5720   16.1540 O   0  0  0  0  0  0  0  0  0  0  0  0
   48.1660   50.6750   17.9620 O   0  0  0  0  0  0  0  0  0  0  0  0
   53.3750   49.4140   20.1540 N   0  0  0  0  0  0  0  0  0  0  0  0
   53.2160   48.6710   19.4890 H   0  0  0  0  0  0  0  0  0  0  0  0
   53.2460   49.0870   21.0990 H   0  0  0  0  0  0  0  0  0  0  0  0
  2  1  1  1  0  0  0
  2 10  1  0  0  0  0
  3  9  1  1  0  0  0
  3  2  1  0  0  0  0
  3  4  1  0  0  0  0
  4  5  1  0  0  0  0
  5  6  1  6  0  0  0
  6  7  1  0  0  0  0
  6  8  1  0  0  0  0
 10 14  1  0  0  0  0
 10  5  1  0  0  0  0
 11 13  2  0  0  0  0
 11  9  1  0  0  0  0
 11  1  1  0  0  0  0
 12 11  2  0  0  0  0
 14 16  1  0  0  0  0
 15 14  1  0  0  0  0
M  END
>  <MODEL>
2

>  <REMARK>
  Name = ZINC03124783
                            x       y       z     vdW  Elec       q    Type
                         _______ _______ _______ _____ _____    ______ ____

>  <TORSDO>
F 1

>  <minimizedAffinity>
-5.6152199901711812

$$$$
ZINC03124783
 OpenBabel10211213563D

 16 17  0  0  1  0  0  0  0  0999 V2000
   51.8410   54.3980   19.4290 C   0  0  0  0  0  0  0  0  0  0  0  0
   52.5060   53.0140   19.6130 C   0  0  1  0  0  0  0  0  0  0  0  0
   51.9250   52.2110   20.7910 C   0  0  2  0  0  0  0  0  0  0  0  0
   51.2480   50.7440   19.9090 S   0  0  0  0  0  0  0  0  0  0  0  0
   51.4160   51.3550   18.2370 C   0  0  1  0  0  0  0  0  0  0  0  0
   50.7420   51.0160   17.1730 N   0  0  0  0  0  0  0  0  0  0  0  0
   50.9410   51.4340   16.3190 H   0  0  0  0  0  0  0  0  0  0  0  0
   50.0430   50.3480   17.2340 H   0  0  0  0  0  0  0  0  0  0  0  0
   50.7810   52.9400   21.5250 C   0  0  0  0  0  0  0  0  0  0  0  0
   52.4270   52.2740   18.3610 N   0  0  0  0  0  0  0  0  0  0  0  0
   51.1570   54.7020   21.1170 S   0  0  0  0  0  0  0  0  0  0  0  0
   52.1920   55.1770   21.9670 O   0  0  0  0  0  0  0  0  0  0  0  0
   49.9410   55.4290   21.0090 O   0  0  0  0  0  0  0  0  0  0  0  0
   53.3170   52.4780   17.3440 N   0  0  0  0  0  0  0  0  0  0  0  0
   53.8450   51.6400   17.1530 H   0  0  0  0  0  0  0  0  0  0  0  0
   53.9290   53.2530   17.5500 H   0  0  0  0  0  0  0  0  0  0  0  0
  1  2  1  0  0  0  0
  1 11  1  0  0  0  0
  2 10  1  6  0  0  0
  2  3  1  0  0  0  0
  3  4  1  6  0  0  0
  3  9  1  0  0  0  0
  5  6  1  1  0  0  0
  5 10  1  0  0  0  0
  5  4  1  0  0  0  0
  6  8  1  0  0  0  0
  7  6  1  0  0  0  0
 11  9  1  0  0  0  0
 11 12  2  0  0  0  0
 13 11  2  0  0  0  0
 14 16  1  0  0  0  0
 14 10  1  0  0  0  0
 15 14  1  0  0  0  0
M  END
>  <MODEL>
3

>  <REMARK>
  Name = ZINC03124783
                            x       y       z     vdW  Elec       q    Type
                         _______ _______ _______ _____ _____    ______ ____

>  <TORSDO>
F 1

>  <minimizedAffinity>
-5.6106366650667194

$$$$
ZINC03124783
 OpenBabel10211213563D

 16 17  0  0  1  0  0  0  0  0999 V2000
   51.8150   55.1510   22.4140 C   0  0  0  0  0  0  0  0  0  0  0  0
   50.9340   54.4660   21.3440 C   0  0  1  0  0  0  0  0  0  0  0  0
   51.1340   55.0430   19.9300 C   0  0  2  0  0  0  0  0  0  0  0  0
   51.7630   53.5620   19.0370 S   0  0  0  0  0  0  0  0  0  0  0  0
   52.0380   52.5100   20.4570 C   0  0  1  0  0  0  0  0  0  0  0  0
   52.8640   51.5070   20.5820 N   0  0  0  0  0  0  0  0  0  0  0  0
   52.9110   51.0190   21.4190 H   0  0  0  0  0  0  0  0  0  0  0  0
   53.4320   51.2520   19.8380 H   0  0  0  0  0  0  0  0  0  0  0  0
   52.1910   56.1640   19.8700 C   0  0  0  0  0  0  0  0  0  0  0  0
   51.1670   53.0280   21.3800 N   0  0  0  0  0  0  0  0  0  0  0  0
   52.1660   56.7770   21.6130 S   0  0  0  0  0  0  0  0  0  0  0  0
   51.0560   57.6430   21.7970 O   0  0  0  0  0  0  0  0  0  0  0  0
   53.4700   57.2100   21.9770 O   0  0  0  0  0  0  0  0  0  0  0  0
   50.5490   52.2200   22.2920 N   0  0  0  0  0  0  0  0  0  0  0  0
   50.4220   51.2900   21.9230 H   0  0  0  0  0  0  0  0  0  0  0  0
   49.6690   52.6150   22.5870 H   0  0  0  0  0  0  0  0  0  0  0  0
  2 10  1  6  0  0  0
  2  1  1  0  0  0  0
  3  4  1  1  0  0  0
  3  2  1  0  0  0  0
  4  5  1  0  0  0  0
  5  6  1  1  0  0  0
  5 10  1  0  0  0  0
  6  7  1  0  0  0  0
  8  6  1  0  0  0  0
  9  3  1  0  0  0  0
  9 11  1  0  0  0  0
 10 14  1  0  0  0  0
 11 12  2  0  0  0  0
 11 13  2  0  0  0  0
 11  1  1  0  0  0  0
 14 16  1  0  0  0  0
 15 14  1  0  0  0  0
M  END
>  <MODEL>
4

>  <REMARK>
  Name = ZINC03124783
                            x       y       z     vdW  Elec       q    Type
                         _______ _______ _______ _____ _____    ______ ____

>  <TORSDO>
F 1

>  <minimizedAffinity>
-5.4384170547160329

$$$$
ZINC03124783
 OpenBabel10211213563D

 16 17  0  0  1  0  0  0  0  0999 V2000
   51.7470   54.9060   22.1490 C   0  0  0  0  0  0  0  0  0  0  0  0
   51.6330   55.9440   21.0090 C   0  0  1  0  0  0  0  0  0  0  0  0
   50.6460   55.5280   19.9020 C   0  0  2  0  0  0  0  0  0  0  0  0
   49.4060   56.8830   20.0170 S   0  0  0  0  0  0  0  0  0  0  0  0
   49.9770   57.6190   21.5440 C   0  0  1  0  0  0  0  0  0  0  0  0
   49.3060   58.3280   22.4090 N   0  0  0  0  0  0  0  0  0  0  0  0
   49.7460   58.6680   23.2040 H   0  0  0  0  0  0  0  0  0  0  0  0
   48.3660   58.5130   22.2590 H   0  0  0  0  0  0  0  0  0  0  0  0
   49.9540   54.1760   20.1740 C   0  0  0  0  0  0  0  0  0  0  0  0
   51.2950   57.2430   21.5750 N   0  0  0  0  0  0  0  0  0  0  0  0
   51.1750   53.3680   21.3020 S   0  0  0  0  0  0  0  0  0  0  0  0
   52.2420   52.8260   20.5370 O   0  0  0  0  0  0  0  0  0  0  0  0
   50.4830   52.5470   22.2320 O   0  0  0  0  0  0  0  0  0  0  0  0
   52.2450   58.0620   22.1190 N   0  0  0  0  0  0  0  0  0  0  0  0
   53.0620   58.1080   21.5290 H   0  0  0  0  0  0  0  0  0  0  0  0
   52.4890   57.7630   23.0510 H   0  0  0  0  0  0  0  0  0  0  0  0
  2 10  1  1  0  0  0
  2  1  1  0  0  0  0
  3  4  1  1  0  0  0
  3  9  1  0  0  0  0
  3  2  1  0  0  0  0
  4  5  1  0  0  0  0
  5 10  1  0  0  0  0
  5  6  1  1  0  0  0
  6  7  1  0  0  0  0
  8  6  1  0  0  0  0
  9 11  1  0  0  0  0
 10 14  1  0  0  0  0
 11  1  1  0  0  0  0
 11 13  2  0  0  0  0
 12 11  2  0  0  0  0
 14 16  1  0  0  0  0
 15 14  1  0  0  0  0
M  END
>  <MODEL>
5

>  <REMARK>
  Name = ZINC03124783
                            x       y       z     vdW  Elec       q    Type
                         _______ _______ _______ _____ _____    ______ ____

>  <TORSDO>
F 1

>  <minimizedAffinity>
-5.2497043876699001

$$$$
ZINC03124783
 OpenBabel10211213563D

 16 17  0  0  1  0  0  0  0  0999 V2000
   50.1030   49.0630   19.6000 C   0  0  0  0  0  0  0  0  0  0  0  0
   51.0460   50.1430   19.0220 C   0  0  1  0  0  0  0  0  0  0  0  0
   50.3310   51.1400   18.0900 C   0  0  2  0  0  0  0  0  0  0  0  0
   50.5880   52.7160   19.0050 S   0  0  0  0  0  0  0  0  0  0  0  0
   51.2140   52.0220   20.5310 C   0  0  1  0  0  0  0  0  0  0  0  0
   51.1820   52.5310   21.7320 N   0  0  0  0  0  0  0  0  0  0  0  0
   51.5620   52.0390   22.4770 H   0  0  0  0  0  0  0  0  0  0  0  0
   50.7770   53.3990   21.8800 H   0  0  0  0  0  0  0  0  0  0  0  0
   48.8190   50.8710   17.9490 C   0  0  0  0  0  0  0  0  0  0  0  0
   51.7280   50.8200   20.1170 N   0  0  0  0  0  0  0  0  0  0  0  0
   48.7340   49.0720   18.3620 S   0  0  0  0  0  0  0  0  0  0  0  0
   49.1170   48.3050   17.2290 O   0  0  0  0  0  0  0  0  0  0  0  0
   47.5030   48.7980   19.0170 O   0  0  0  0  0  0  0  0  0  0  0  0
   52.8350   50.2880   20.7160 N   0  0  0  0  0  0  0  0  0  0  0  0
   52.7370   49.2900   20.8330 H   0  0  0  0  0  0  0  0  0  0  0  0
   53.0200   50.7390   21.5990 H   0  0  0  0  0  0  0  0  0  0  0  0
  2  1  1  1  0  0  0
  2 10  1  0  0  0  0
  3  9  1  1  0  0  0
  3  4  1  0  0  0  0
  3  2  1  0  0  0  0
  4  5  1  0  0  0  0
  5  6  1  1  0  0  0
  6  8  1  0  0  0  0
  6  7  1  0  0  0  0
  9 11  1  0  0  0  0
 10  5  1  0  0  0  0
 10 14  1  0  0  0  0
 11 13  2  0  0  0  0
 11  1  1  0  0  0  0
 12 11  2  0  0  0  0
 14 15  1  0  0  0  0
 14 16  1  0  0  0  0
M  END
>  <MODEL>
6

>  <REMARK>
  Name = ZINC03124783
                            x       y       z     vdW  Elec       q    Type
                         _______ _______ _______ _____ _____    ______ ____

>  <TORSDO>
F 1

>  <minimizedAffinity>
-5.0961097386655201

$$$$
ZINC03124783
 OpenBabel10211213563D

 16 17  0  0  1  0  0  0  0  0999 V2000
   52.4710   55.8830   19.4840 C   0  0  0  0  0  0  0  0  0  0  0  0
   52.4980   54.4300   20.0130 C   0  0  1  0  0  0  0  0  0  0  0  0
   51.7510   54.2540   21.3480 C   0  0  2  0  0  0  0  0  0  0  0  0
   50.4290   53.0740   20.8510 S   0  0  0  0  0  0  0  0  0  0  0  0
   50.6730   53.1510   19.0810 C   0  0  1  0  0  0  0  0  0  0  0  0
   49.8170   52.9070   18.1280 N   0  0  0  0  0  0  0  0  0  0  0  0
   50.0880   52.9900   17.2000 H   0  0  0  0  0  0  0  0  0  0  0  0
   48.9090   52.6460   18.3470 H   0  0  0  0  0  0  0  0  0  0  0  0
   51.1050   55.5560   21.8660 C   0  0  0  0  0  0  0  0  0  0  0  0
   51.9860   53.5360   18.9840 N   0  0  0  0  0  0  0  0  0  0  0  0
   52.1540   56.8310   21.0360 S   0  0  0  0  0  0  0  0  0  0  0  0
   53.3710   56.9850   21.7520 O   0  0  0  0  0  0  0  0  0  0  0  0
   51.3590   57.9710   20.7380 O   0  0  0  0  0  0  0  0  0  0  0  0
   52.7720   53.0920   17.9570 N   0  0  0  0  0  0  0  0  0  0  0  0
   52.2090   52.7880   17.1770 H   0  0  0  0  0  0  0  0  0  0  0  0
   53.3890   52.3570   18.2660 H   0  0  0  0  0  0  0  0  0  0  0  0
  1  2  1  0  0  0  0
  1 11  1  0  0  0  0
  2 10  1  6  0  0  0
  2  3  1  0  0  0  0
  3  4  1  6  0  0  0
  3  9  1  0  0  0  0
  5  6  1  1  0  0  0
  5  4  1  0  0  0  0
  6  8  1  0  0  0  0
  7  6  1  0  0  0  0
 10  5  1  0  0  0  0
 11 12  2  0  0  0  0
 11  9  1  0  0  0  0
 13 11  2  0  0  0  0
 14 16  1  0  0  0  0
 14 10  1  0  0  0  0
 15 14  1  0  0  0  0
M  END
>  <MODEL>
7

>  <REMARK>
  Name = ZINC03124783
                            x       y       z     vdW  Elec       q    Type
                         _______ _______ _______ _____ _____    ______ ____

>  <TORSDO>
F 1

>  <minimizedAffinity>
-5.0912805384688218

$$$$
ZINC03124783
 OpenBabel10211213563D

 16 17  0  0  1  0  0  0  0  0999 V2000
   50.6800   49.3480   19.8870 C   0  0  0  0  0  0  0  0  0  0  0  0
   49.7200   50.1720   18.9980 C   0  0  1  0  0  0  0  0  0  0  0  0
   50.4510   51.1240   18.0330 C   0  0  2  0  0  0  0  0  0  0  0  0
   49.9060   50.4540   16.4070 S   0  0  0  0  0  0  0  0  0  0  0  0
   49.1490   48.9450   16.9980 C   0  0  1  0  0  0  0  0  0  0  0  0
   48.9600   47.8230   16.3590 N   0  0  0  0  0  0  0  0  0  0  0  0
   48.5320   47.0760   16.8070 H   0  0  0  0  0  0  0  0  0  0  0  0
   49.2480   47.7360   15.4380 H   0  0  0  0  0  0  0  0  0  0  0  0
   51.9880   51.0380   18.1320 C   0  0  0  0  0  0  0  0  0  0  0  0
   48.8260   49.2660   18.2910 N   0  0  0  0  0  0  0  0  0  0  0  0
   52.2010   50.3950   19.8510 S   0  0  0  0  0  0  0  0  0  0  0  0
   52.0620   51.4620   20.7790 O   0  0  0  0  0  0  0  0  0  0  0  0
   53.3500   49.5600   19.9010 O   0  0  0  0  0  0  0  0  0  0  0  0
   47.7070   48.7500   18.8830 N   0  0  0  0  0  0  0  0  0  0  0  0
   47.7980   47.7540   19.0190 H   0  0  0  0  0  0  0  0  0  0  0  0
   46.8810   48.9670   18.3470 H   0  0  0  0  0  0  0  0  0  0  0  0
  2 10  1  6  0  0  0
  2  1  1  0  0  0  0
  3  4  1  6  0  0  0
  3  9  1  0  0  0  0
  3  2  1  0  0  0  0
  4  5  1  0  0  0  0
  5  6  1  1  0  0  0
  5 10  1  0  0  0  0
  6  7  1  0  0  0  0
  8  6  1  0  0  0  0
  9 11  1  0  0  0  0
 10 14  1  0  0  0  0
 11  1  1  0  0  0  0
 11 13  2  0  0  0  0
 11 12  2  0  0  0  0
 14 15  1  0  0  0  0
 16 14  1  0  0  0  0
M  END
>  <MODEL>
8

>  <REMARK>
  Name = ZINC03124783
                            x       y       z     vdW  Elec       q    Type
                         _______ _______ _______ _____ _____    ______ ____

>  <TORSDO>
F 1

>  <minimizedAffinity>
-5.0420567458538796

$$$$
ZINC03124783
 OpenBabel10211213563D

 16 17  0  0  1  0  0  0  0  0999 V2000
   50.4020   50.1900   16.2700 C   0  0  0  0  0  0  0  0  0  0  0  0
   50.3940   50.8890   17.6490 C   0  0  1  0  0  0  0  0  0  0  0  0
   49.3760   50.2820   18.6330 C   0  0  2  0  0  0  0  0  0  0  0  0
   50.4960   49.6880   19.9680 S   0  0  0  0  0  0  0  0  0  0  0  0
   52.0500   49.9100   19.1100 C   0  0  1  0  0  0  0  0  0  0  0  0
   53.1830   49.2940   19.3030 N   0  0  0  0  0  0  0  0  0  0  0  0
   53.9550   49.5160   18.7580 H   0  0  0  0  0  0  0  0  0  0  0  0
   53.2540   48.6130   19.9890 H   0  0  0  0  0  0  0  0  0  0  0  0
   48.5970   49.0850   18.0490 C   0  0  0  0  0  0  0  0  0  0  0  0
   51.7440   50.8860   18.1970 N   0  0  0  0  0  0  0  0  0  0  0  0
   48.7230   49.4250   16.2370 S   0  0  0  0  0  0  0  0  0  0  0  0
   47.7640   50.4070   15.8700 O   0  0  0  0  0  0  0  0  0  0  0  0
   48.7790   48.1930   15.5310 O   0  0  0  0  0  0  0  0  0  0  0  0
   52.6760   51.8130   17.8220 N   0  0  0  0  0  0  0  0  0  0  0  0
   53.0400   51.6080   16.9040 H   0  0  0  0  0  0  0  0  0  0  0  0
   53.4190   51.8730   18.5010 H   0  0  0  0  0  0  0  0  0  0  0  0
  2  1  1  1  0  0  0
  2 10  1  0  0  0  0
  2  3  1  0  0  0  0
  3  9  1  6  0  0  0
  3  4  1  0  0  0  0
  5  6  1  6  0  0  0
  5  4  1  0  0  0  0
  6  8  1  0  0  0  0
  7  6  1  0  0  0  0
 10  5  1  0  0  0  0
 11  1  1  0  0  0  0
 11  9  1  0  0  0  0
 12 11  2  0  0  0  0
 13 11  2  0  0  0  0
 14 10  1  0  0  0  0
 14 16  1  0  0  0  0
 15 14  1  0  0  0  0
M  END
>  <MODEL>
9

>  <REMARK>
  Name = ZINC03124783
                            x       y       z     vdW  Elec       q    Type
                         _______ _______ _______ _____ _____    ______ ____

>  <TORSDO>
F 1

>  <minimizedAffinity>
-5.0327321050351044

$$$$
ZINC54244349
 OpenBabel10211213573D

 17 17  0  0  1  0  0  0  0  0999 V2000
   51.7410   50.1240   18.5790 N   0  0  0  0  0  0  0  0  0  0  0  0
   52.2500   50.4270   17.8110 H   0  0  0  0  0  0  0  0  0  0  0  0
   50.3970   50.0510   18.5120 C   0  0  0  0  0  0  0  0  0  0  0  0
   49.7620   49.6730   19.4730 O   0  0  0  0  0  0  0  0  0  0  0  0
   49.6850   50.4400   17.2420 C   0  0  2  0  0  0  0  0  0  0  0  0
   48.4700   49.4990   17.0330 C   0  0  0  0  0  0  0  0  0  0  0  0
   48.5010   49.4000   15.1930 S   0  0  0  0  0  0  0  0  0  0  0  0
   50.2020   49.8770   14.9410 C   0  0  0  0  0  0  0  0  0  0  0  0
   50.8500   49.7900   13.9150 O   0  0  0  0  0  0  0  0  0  0  0  0
   50.6150   50.3530   16.1310 N   0  0  0  0  0  0  0  0  0  0  0  0
   51.5350   50.6410   16.2440 H   0  0  0  0  0  0  0  0  0  0  0  0
   52.4350   49.7470   19.8140 C   0  0  0  0  0  0  0  0  0  0  0  0
   52.6210   50.9850   20.6940 C   0  0  0  0  0  0  0  0  0  0  0  0
   50.9670   52.3080   21.8210 C   0  0  0  0  0  0  0  0  0  0  0  0
   51.6060   50.9860   21.7560 N   0  0  0  0  0  0  0  0  0  0  0  0
   50.9090   50.2850   21.5570 H   0  0  0  0  0  0  0  0  0  0  0  0
   52.0460   50.7820   22.6410 H   0  0  0  0  0  0  0  0  0  0  0  0
  1 12  1  0  0  0  0
  2  1  1  0  0  0  0
  3  1  1  0  0  0  0
  3  4  2  0  0  0  0
  5  3  1  6  0  0  0
  6  5  1  0  0  0  0
  7  6  1  0  0  0  0
  8  7  1  0  0  0  0
  8 10  1  0  0  0  0
  9  8  2  0  0  0  0
 10 11  1  0  0  0  0
 10  5  1  0  0  0  0
 12 13  1  0  0  0  0
 13 15  1  0  0  0  0
 15 14  1  0  0  0  0
 15 17  1  0  0  0  0
 16 15  1  0  0  0  0
M  END
>  <MODEL>
1

>  <REMARK>
  Name = ZINC54244349
                            x       y       z     vdW  Elec       q    Type
                         _______ _______ _______ _____ _____    ______ ____

>  <TORSDO>
F 4

>  <minimizedAffinity>
-5.2682191517523549

$$$$
ZINC54244349
 OpenBabel10211213573D

 17 17  0  0  1  0  0  0  0  0999 V2000
   50.6880   55.8600   21.2000 N   0  0  0  0  0  0  0  0  0  0  0  0
   50.1570   55.8990   20.3900 H   0  0  0  0  0  0  0  0  0  0  0  0
   51.3320   54.7240   21.5310 C   0  0  0  0  0  0  0  0  0  0  0  0
   51.9960   54.6760   22.5450 O   0  0  0  0  0  0  0  0  0  0  0  0
   51.2270   53.5120   20.6410 C   0  0  2  0  0  0  0  0  0  0  0  0
   51.7750   52.2750   21.4000 C   0  0  0  0  0  0  0  0  0  0  0  0
   52.5260   51.3780   19.9770 S   0  0  0  0  0  0  0  0  0  0  0  0
   52.6970   52.7630   18.8640 C   0  0  0  0  0  0  0  0  0  0  0  0
   53.3320   52.8040   17.8270 O   0  0  0  0  0  0  0  0  0  0  0  0
   51.9750   53.7530   19.4210 N   0  0  0  0  0  0  0  0  0  0  0  0
   51.9530   54.6300   19.0030 H   0  0  0  0  0  0  0  0  0  0  0  0
   50.7890   57.0390   22.0660 C   0  0  0  0  0  0  0  0  0  0  0  0
   51.8550   57.9880   21.5130 C   0  0  0  0  0  0  0  0  0  0  0  0
   54.2160   57.7640   21.1560 C   0  0  0  0  0  0  0  0  0  0  0  0
   53.1430   57.7040   22.1580 N   0  0  0  0  0  0  0  0  0  0  0  0
   53.3180   58.3900   22.8780 H   0  0  0  0  0  0  0  0  0  0  0  0
   53.1180   56.7840   22.5700 H   0  0  0  0  0  0  0  0  0  0  0  0
  1  3  1  0  0  0  0
  1 12  1  0  0  0  0
  2  1  1  0  0  0  0
  3  4  2  0  0  0  0
  5  6  1  0  0  0  0
  5  3  1  1  0  0  0
  7  6  1  0  0  0  0
  8 10  1  0  0  0  0
  8  7  1  0  0  0  0
  9  8  2  0  0  0  0
 10  5  1  0  0  0  0
 11 10  1  0  0  0  0
 13 12  1  0  0  0  0
 13 15  1  0  0  0  0
 14 15  1  0  0  0  0
 15 17  1  0  0  0  0
 15 16  1  0  0  0  0
M  END
>  <MODEL>
2

>  <REMARK>
  Name = ZINC54244349
                            x       y       z     vdW  Elec       q    Type
                         _______ _______ _______ _____ _____    ______ ____

>  <TORSDO>
F 4

>  <minimizedAffinity>
-5.2524224384638867

$$$$
ZINC54244349
 OpenBabel10211213573D

 17 17  0  0  1  0  0  0  0  0999 V2000
   51.7100   55.1460   21.0230 N   0  0  0  0  0  0  0  0  0  0  0  0
   51.7240   55.5180   20.1270 H   0  0  0  0  0  0  0  0  0  0  0  0
   51.7770   53.8120   21.2020 C   0  0  0  0  0  0  0  0  0  0  0  0
   51.7580   53.3490   22.3220 O   0  0  0  0  0  0  0  0  0  0  0  0
   51.8750   52.8970   20.0090 C   0  0  2  0  0  0  0  0  0  0  0  0
   50.4670   52.3300   19.6860 C   0  0  0  0  0  0  0  0  0  0  0  0
   50.9620   50.6520   19.1070 S   0  0  0  0  0  0  0  0  0  0  0  0
   52.5650   50.5750   19.8890 C   0  0  0  0  0  0  0  0  0  0  0  0
   53.2770   49.5980   20.0210 O   0  0  0  0  0  0  0  0  0  0  0  0
   52.8160   51.8310   20.3030 N   0  0  0  0  0  0  0  0  0  0  0  0
   53.6280   52.0250   20.7990 H   0  0  0  0  0  0  0  0  0  0  0  0
   51.6140   56.0370   22.1830 C   0  0  0  0  0  0  0  0  0  0  0  0
   51.7740   57.4880   21.7260 C   0  0  0  0  0  0  0  0  0  0  0  0
   54.0850   57.9120   21.2430 C   0  0  0  0  0  0  0  0  0  0  0  0
   53.0300   58.0330   22.2590 N   0  0  0  0  0  0  0  0  0  0  0  0
   52.9020   59.0050   22.4970 H   0  0  0  0  0  0  0  0  0  0  0  0
   53.2960   57.5170   23.0840 H   0  0  0  0  0  0  0  0  0  0  0  0
  1  3  1  0  0  0  0
  1 12  1  0  0  0  0
  2  1  1  0  0  0  0
  3  4  2  0  0  0  0
  5 10  1  0  0  0  0
  5  3  1  1  0  0  0
  6  5  1  0  0  0  0
  7  6  1  0  0  0  0
  7  8  1  0  0  0  0
  8  9  2  0  0  0  0
  8 10  1  0  0  0  0
 10 11  1  0  0  0  0
 13 12  1  0  0  0  0
 13 15  1  0  0  0  0
 14 15  1  0  0  0  0
 15 16  1  0  0  0  0
 15 17  1  0  0  0  0
M  END
>  <MODEL>
3

>  <REMARK>
  Name = ZINC54244349
                            x       y       z     vdW  Elec       q    Type
                         _______ _______ _______ _____ _____    ______ ____

>  <TORSDO>
F 4

>  <minimizedAffinity>
-5.1788096866261624

$$$$
ZINC54244349
 OpenBabel10211213573D

 17 17  0  0  1  0  0  0  0  0999 V2000
   52.2660   52.2810   20.7930 N   0  0  0  0  0  0  0  0  0  0  0  0
   52.8410   52.7330   20.1560 H   0  0  0  0  0  0  0  0  0  0  0  0
   51.2530   52.9480   21.3810 C   0  0  0  0  0  0  0  0  0  0  0  0
   50.5360   52.3830   22.1770 O   0  0  0  0  0  0  0  0  0  0  0  0
   51.0140   54.3980   21.0470 C   0  0  2  0  0  0  0  0  0  0  0  0
   51.3730   54.6430   19.5580 C   0  0  0  0  0  0  0  0  0  0  0  0
   52.0370   56.3560   19.7030 S   0  0  0  0  0  0  0  0  0  0  0  0
   52.4200   56.3330   21.4460 C   0  0  0  0  0  0  0  0  0  0  0  0
   53.0830   57.1420   22.0680 O   0  0  0  0  0  0  0  0  0  0  0  0
   51.8200   55.2270   21.9250 N   0  0  0  0  0  0  0  0  0  0  0  0
   51.9260   54.9850   22.8590 H   0  0  0  0  0  0  0  0  0  0  0  0
   52.5000   50.8710   21.1170 C   0  0  0  0  0  0  0  0  0  0  0  0
   52.6510   50.0680   19.8230 C   0  0  0  0  0  0  0  0  0  0  0  0
   50.6700   48.8540   20.4190 C   0  0  0  0  0  0  0  0  0  0  0  0
   52.0750   48.7300   20.0080 N   0  0  0  0  0  0  0  0  0  0  0  0
   52.1280   48.2170   19.1400 H   0  0  0  0  0  0  0  0  0  0  0  0
   52.5920   48.2370   20.7220 H   0  0  0  0  0  0  0  0  0  0  0  0
  1 12  1  0  0  0  0
  1  3  1  0  0  0  0
  2  1  1  0  0  0  0
  3  4  2  0  0  0  0
  5  3  1  6  0  0  0
  5 10  1  0  0  0  0
  6  7  1  0  0  0  0
  6  5  1  0  0  0  0
  7  8  1  0  0  0  0
  8 10  1  0  0  0  0
  8  9  2  0  0  0  0
 10 11  1  0  0  0  0
 13 15  1  0  0  0  0
 13 12  1  0  0  0  0
 15 14  1  0  0  0  0
 15 17  1  0  0  0  0
 16 15  1  0  0  0  0
M  END
>  <MODEL>
4

>  <REMARK>
  Name = ZINC54244349
                            x       y       z     vdW  Elec       q    Type
                         _______ _______ _______ _____ _____    ______ ____

>  <TORSDO>
F 4

>  <minimizedAffinity>
-5.096091781524156

$$$$
ZINC54244349
 OpenBabel10211213573D

 17 17  0  0  1  0  0  0  0  0999 V2000
   52.2920   52.3960   20.6580 N   0  0  0  0  0  0  0  0  0  0  0  0
   52.8080   52.7280   19.9070 H   0  0  0  0  0  0  0  0  0  0  0  0
   51.5230   53.2390   21.3750 C   0  0  0  0  0  0  0  0  0  0  0  0
   50.8790   52.8220   22.3140 O   0  0  0  0  0  0  0  0  0  0  0  0
   51.4640   54.7000   21.0090 C   0  0  2  0  0  0  0  0  0  0  0  0
   51.7740   55.5510   22.2680 C   0  0  0  0  0  0  0  0  0  0  0  0
   50.6600   56.9790   21.9260 S   0  0  0  0  0  0  0  0  0  0  0  0
   49.5460   56.1660   20.7930 C   0  0  0  0  0  0  0  0  0  0  0  0
   48.4730   56.5750   20.3910 O   0  0  0  0  0  0  0  0  0  0  0  0
   50.1470   55.0040   20.4790 N   0  0  0  0  0  0  0  0  0  0  0  0
   49.7000   54.3680   19.8970 H   0  0  0  0  0  0  0  0  0  0  0  0
   52.3510   50.9750   21.0140 C   0  0  0  0  0  0  0  0  0  0  0  0
   52.8160   50.1650   19.8020 C   0  0  0  0  0  0  0  0  0  0  0  0
   50.9790   48.7450   20.4020 C   0  0  0  0  0  0  0  0  0  0  0  0
   52.3750   48.7710   19.9470 N   0  0  0  0  0  0  0  0  0  0  0  0
   52.4480   48.3000   19.0580 H   0  0  0  0  0  0  0  0  0  0  0  0
   52.9590   48.3030   20.6240 H   0  0  0  0  0  0  0  0  0  0  0  0
  1 12  1  0  0  0  0
  1  3  1  0  0  0  0
  2  1  1  0  0  0  0
  3  4  2  0  0  0  0
  5  3  1  1  0  0  0
  5  6  1  0  0  0  0
  7  6  1  0  0  0  0
  8  7  1  0  0  0  0
  9  8  2  0  0  0  0
 10  8  1  0  0  0  0
 10  5  1  0  0  0  0
 11 10  1  0  0  0  0
 13 15  1  0  0  0  0
 13 12  1  0  0  0  0
 15 14  1  0  0  0  0
 15 17  1  0  0  0  0
 16 15  1  0  0  0  0
M  END
>  <MODEL>
5

>  <REMARK>
  Name = ZINC54244349
                            x       y       z     vdW  Elec       q    Type
                         _______ _______ _______ _____ _____    ______ ____

>  <TORSDO>
F 4

>  <minimizedAffinity>
-5.094546343787413

$$$$
ZINC54244349
 OpenBabel10211213573D

 17 17  0  0  1  0  0  0  0  0999 V2000
   49.4710   48.5610   18.4410 N   0  0  0  0  0  0  0  0  0  0  0  0
   49.7240   47.6260   18.4060 H   0  0  0  0  0  0  0  0  0  0  0  0
   48.4780   49.0230   17.6560 C   0  0  0  0  0  0  0  0  0  0  0  0
   48.1630   50.1920   17.7010 O   0  0  0  0  0  0  0  0  0  0  0  0
   47.7610   48.0840   16.7200 C   0  0  2  0  0  0  0  0  0  0  0  0
   47.9780   48.5590   15.2590 C   0  0  0  0  0  0  0  0  0  0  0  0
   46.3410   48.0830   14.5590 S   0  0  0  0  0  0  0  0  0  0  0  0
   45.4210   48.0150   16.0880 C   0  0  0  0  0  0  0  0  0  0  0  0
   44.2140   47.9460   16.2210 O   0  0  0  0  0  0  0  0  0  0  0  0
   46.3500   48.0610   17.0610 N   0  0  0  0  0  0  0  0  0  0  0  0
   46.0750   48.0760   17.9920 H   0  0  0  0  0  0  0  0  0  0  0  0
   50.1700   49.4740   19.3510 C   0  0  0  0  0  0  0  0  0  0  0  0
   50.8710   48.6660   20.4450 C   0  0  0  0  0  0  0  0  0  0  0  0
   52.8220   49.8530   19.7110 C   0  0  0  0  0  0  0  0  0  0  0  0
   52.2990   48.5430   20.1230 N   0  0  0  0  0  0  0  0  0  0  0  0
   52.8010   48.2210   20.9370 H   0  0  0  0  0  0  0  0  0  0  0  0
   52.4180   47.8810   19.3710 H   0  0  0  0  0  0  0  0  0  0  0  0
  1 12  1  0  0  0  0
  2  1  1  0  0  0  0
  3  4  2  0  0  0  0
  3  1  1  0  0  0  0
  5 10  1  0  0  0  0
  5  3  1  6  0  0  0
  6  5  1  0  0  0  0
  7  6  1  0  0  0  0
  7  8  1  0  0  0  0
  8  9  2  0  0  0  0
  8 10  1  0  0  0  0
 10 11  1  0  0  0  0
 12 13  1  0  0  0  0
 14 15  1  0  0  0  0
 15 13  1  0  0  0  0
 15 16  1  0  0  0  0
 17 15  1  0  0  0  0
M  END
>  <MODEL>
6

>  <REMARK>
  Name = ZINC54244349
                            x       y       z     vdW  Elec       q    Type
                         _______ _______ _______ _____ _____    ______ ____

>  <TORSDO>
F 4

>  <minimizedAffinity>
-4.9108336056758226

$$$$
ZINC54244349
 OpenBabel10211213573D

 17 17  0  0  1  0  0  0  0  0999 V2000
   52.0020   55.1780   21.0940 N   0  0  0  0  0  0  0  0  0  0  0  0
   52.4780   55.5850   20.3540 H   0  0  0  0  0  0  0  0  0  0  0  0
   51.6940   53.8670   21.0590 C   0  0  0  0  0  0  0  0  0  0  0  0
   51.0980   53.3590   21.9850 O   0  0  0  0  0  0  0  0  0  0  0  0
   52.0890   53.0320   19.8690 C   0  0  2  0  0  0  0  0  0  0  0  0
   50.8130   52.6230   19.0880 C   0  0  0  0  0  0  0  0  0  0  0  0
   51.3460   50.9510   18.5270 S   0  0  0  0  0  0  0  0  0  0  0  0
   52.6230   50.6700   19.7410 C   0  0  0  0  0  0  0  0  0  0  0  0
   53.1920   49.6230   19.9870 O   0  0  0  0  0  0  0  0  0  0  0  0
   52.8200   51.8650   20.3290 N   0  0  0  0  0  0  0  0  0  0  0  0
   53.4540   51.9460   21.0600 H   0  0  0  0  0  0  0  0  0  0  0  0
   51.6170   55.9910   22.2510 C   0  0  0  0  0  0  0  0  0  0  0  0
   51.3770   57.4350   21.8040 C   0  0  0  0  0  0  0  0  0  0  0  0
   49.0280   57.2740   21.3470 C   0  0  0  0  0  0  0  0  0  0  0  0
   50.0400   57.8640   22.2340 N   0  0  0  0  0  0  0  0  0  0  0  0
   49.8760   57.5570   23.1810 H   0  0  0  0  0  0  0  0  0  0  0  0
   49.9800   58.8700   22.1910 H   0  0  0  0  0  0  0  0  0  0  0  0
  1 12  1  0  0  0  0
  2  1  1  0  0  0  0
  3  1  1  0  0  0  0
  3  4  2  0  0  0  0
  5 10  1  0  0  0  0
  5  3  1  1  0  0  0
  6  5  1  0  0  0  0
  7  6  1  0  0  0  0
  7  8  1  0  0  0  0
  8  9  2  0  0  0  0
  8 10  1  0  0  0  0
 10 11  1  0  0  0  0
 13 15  1  0  0  0  0
 13 12  1  0  0  0  0
 14 15  1  0  0  0  0
 15 16  1  0  0  0  0
 17 15  1  0  0  0  0
M  END
>  <MODEL>
7

>  <REMARK>
  Name = ZINC54244349
                            x       y       z     vdW  Elec       q    Type
                         _______ _______ _______ _____ _____    ______ ____

>  <TORSDO>
F 4

>  <minimizedAffinity>
-4.8731957951182716

$$$$
ZINC54244349
 OpenBabel10211213573D

 17 17  0  0  1  0  0  0  0  0999 V2000
   51.4560   50.5440   18.0910 N   0  0  0  0  0  0  0  0  0  0  0  0
   51.5830   49.6460   17.7460 H   0  0  0  0  0  0  0  0  0  0  0  0
   50.4250   51.2940   17.6570 C   0  0  0  0  0  0  0  0  0  0  0  0
   50.2670   52.4160   18.0880 O   0  0  0  0  0  0  0  0  0  0  0  0
   49.4670   50.7380   16.6350 C   0  0  2  0  0  0  0  0  0  0  0  0
   48.0130   50.9780   17.1170 C   0  0  0  0  0  0  0  0  0  0  0  0
   47.2350   49.4450   16.4540 S   0  0  0  0  0  0  0  0  0  0  0  0
   48.7140   48.4580   16.2960 C   0  0  0  0  0  0  0  0  0  0  0  0
   48.7850   47.2610   16.0910 O   0  0  0  0  0  0  0  0  0  0  0  0
   49.7340   49.3220   16.4550 N   0  0  0  0  0  0  0  0  0  0  0  0
   50.6490   48.9980   16.4470 H   0  0  0  0  0  0  0  0  0  0  0  0
   52.3890   51.0840   19.0840 C   0  0  0  0  0  0  0  0  0  0  0  0
   52.4490   50.1450   20.2910 C   0  0  0  0  0  0  0  0  0  0  0  0
   51.5880   51.9930   21.5540 C   0  0  0  0  0  0  0  0  0  0  0  0
   52.6070   50.9360   21.5190 N   0  0  0  0  0  0  0  0  0  0  0  0
   52.4970   50.3350   22.3220 H   0  0  0  0  0  0  0  0  0  0  0  0
   53.5260   51.3530   21.5330 H   0  0  0  0  0  0  0  0  0  0  0  0
  1 12  1  0  0  0  0
  2  1  1  0  0  0  0
  3  4  2  0  0  0  0
  3  1  1  0  0  0  0
  5  6  1  0  0  0  0
  5  3  1  1  0  0  0
  7  6  1  0  0  0  0
  8  7  1  0  0  0  0
  8 10  1  0  0  0  0
  9  8  2  0  0  0  0
 10  5  1  0  0  0  0
 11 10  1  0  0  0  0
 12 13  1  0  0  0  0
 13 15  1  0  0  0  0
 15 17  1  0  0  0  0
 15 14  1  0  0  0  0
 15 16  1  0  0  0  0
M  END
>  <MODEL>
8

>  <REMARK>
  Name = ZINC54244349
                            x       y       z     vdW  Elec       q    Type
                         _______ _______ _______ _____ _____    ______ ____

>  <TORSDO>
F 4

>  <minimizedAffinity>
-4.7856849197416915

$$$$
ZINC54244349
 OpenBabel10211213573D

 17 17  0  0  1  0  0  0  0  0999 V2000
   47.7960   48.8350   18.7730 N   0  0  0  0  0  0  0  0  0  0  0  0
   47.5860   49.0880   19.6860 H   0  0  0  0  0  0  0  0  0  0  0  0
   48.9020   49.3200   18.1750 C   0  0  0  0  0  0  0  0  0  0  0  0
   49.1630   49.0020   17.0350 O   0  0  0  0  0  0  0  0  0  0  0  0
   49.8130   50.2570   18.9250 C   0  0  2  0  0  0  0  0  0  0  0  0
   50.2720   51.3910   17.9710 C   0  0  0  0  0  0  0  0  0  0  0  0
   51.9770   51.6390   18.6230 S   0  0  0  0  0  0  0  0  0  0  0  0
   52.1790   50.0540   19.4180 C   0  0  0  0  0  0  0  0  0  0  0  0
   53.2070   49.5690   19.8500 O   0  0  0  0  0  0  0  0  0  0  0  0
   50.9480   49.5090   19.4360 N   0  0  0  0  0  0  0  0  0  0  0  0
   50.8190   48.6150   19.7920 H   0  0  0  0  0  0  0  0  0  0  0  0
   46.9090   47.9230   18.0450 C   0  0  0  0  0  0  0  0  0  0  0  0
   45.4880   48.4930   18.0360 C   0  0  0  0  0  0  0  0  0  0  0  0
   44.5230   47.0150   19.6590 C   0  0  0  0  0  0  0  0  0  0  0  0
   44.5240   47.4050   18.2430 N   0  0  0  0  0  0  0  0  0  0  0  0
   43.6010   47.7180   17.9800 H   0  0  0  0  0  0  0  0  0  0  0  0
   44.7850   46.6120   17.6750 H   0  0  0  0  0  0  0  0  0  0  0  0
  1  2  1  0  0  0  0
  3  1  1  0  0  0  0
  4  3  2  0  0  0  0
  5  3  1  6  0  0  0
  5 10  1  0  0  0  0
  6  7  1  0  0  0  0
  6  5  1  0  0  0  0
  7  8  1  0  0  0  0
  8 10  1  0  0  0  0
  8  9  2  0  0  0  0
 10 11  1  0  0  0  0
 12  1  1  0  0  0  0
 13 12  1  0  0  0  0
 13 15  1  0  0  0  0
 15 14  1  0  0  0  0
 16 15  1  0  0  0  0
 17 15  1  0  0  0  0
M  END
>  <MODEL>
9

>  <REMARK>
  Name = ZINC54244349
                            x       y       z     vdW  Elec       q    Type
                         _______ _______ _______ _____ _____    ______ ____

>  <TORSDO>
F 4

>  <minimizedAffinity>
-4.702199657433221

$$$$
ZINC37820855
 OpenBabel10211213583D

 24 25  0  0  1  0  0  0  0  0999 V2000
   47.6570   52.2840   17.2230 C   0  0  0  0  0  0  0  0  0  0  0  0
   49.0570   52.8270   17.5190 C   0  0  0  0  0  0  0  0  0  0  0  0
   49.8370   51.8070   18.3520 C   0  0  1  0  0  0  0  0  0  0  0  0
   49.9810   50.5060   17.5570 C   0  0  0  0  0  0  0  0  0  0  0  0
   48.6450   50.0540   17.1440 N   0  0  0  0  0  0  0  0  0  0  0  0
   48.2250   48.8050   17.4290 C   0  0  0  0  0  0  0  0  0  0  0  0
   48.9840   48.0140   17.9460 O   0  0  0  0  0  0  0  0  0  0  0  0
   47.7770   50.9880   16.4150 C   0  0  0  0  0  0  0  0  0  0  0  0
   46.8120   48.3930   17.1040 C   0  0  0  0  0  0  0  0  0  0  0  0
   46.8200   47.0090   16.4490 C   0  0  0  0  0  0  0  0  0  0  0  0
   45.3780   46.5630   16.1950 C   0  0  0  0  0  0  0  0  0  0  0  0
   44.6500   46.5000   17.4680 N   0  0  0  0  0  0  0  0  0  0  0  0
   45.1310   45.8760   18.0980 H   0  0  0  0  0  0  0  0  0  0  0  0
   43.7160   46.1540   17.3030 H   0  0  0  0  0  0  0  0  0  0  0  0
   44.5770   47.8380   18.0670 C   0  0  0  0  0  0  0  0  0  0  0  0
   45.9870   48.3330   18.3930 C   0  0  0  0  0  0  0  0  0  0  0  0
   51.2250   52.3650   18.6750 C   0  0  0  0  0  0  0  0  0  0  0  0
   51.4950   52.2010   20.1060 N   0  0  0  0  0  0  0  0  0  0  0  0
   51.0960   52.8090   20.7480 H   0  0  0  0  0  0  0  0  0  0  0  0
   52.3000   51.2070   20.5290 C   0  0  0  0  0  0  0  0  0  0  0  0
   52.5500   51.0550   21.8450 N   0  0  0  0  0  0  0  0  0  0  0  0
   53.1290   50.3400   22.1500 H   0  0  0  0  0  0  0  0  0  0  0  0
   52.1490   51.6630   22.4870 H   0  0  0  0  0  0  0  0  0  0  0  0
   52.8010   50.4460   19.7240 O   0  0  0  0  0  0  0  0  0  0  0  0
  1  2  1  0  0  0  0
  2  3  1  0  0  0  0
  3 17  1  6  0  0  0
  4  3  1  0  0  0  0
  5  6  1  0  0  0  0
  5  4  1  0  0  0  0
  6  7  2  0  0  0  0
  8  5  1  0  0  0  0
  8  1  1  0  0  0  0
  9  6  1  0  0  0  0
  9 16  1  0  0  0  0
 10  9  1  0  0  0  0
 11 10  1  0  0  0  0
 11 12  1  0  0  0  0
 12 15  1  0  0  0  0
 12 13  1  0  0  0  0
 14 12  1  0  0  0  0
 15 16  1  0  0  0  0
 17 18  1  0  0  0  0
 18 20  1  0  0  0  0
 18 19  1  0  0  0  0
 20 21  1  0  0  0  0
 21 22  1  0  0  0  0
 21 23  1  0  0  0  0
 24 20  2  0  0  0  0
M  END
>  <MODEL>
1

>  <REMARK>
  Name = ZINC37820855
                            x       y       z     vdW  Elec       q    Type
                         _______ _______ _______ _____ _____    ______ ____

>  <TORSDO>
F 3

>  <minimizedAffinity>
-7.7903294240431835

$$$$
ZINC37820855
 OpenBabel10211213583D

 24 25  0  0  1  0  0  0  0  0999 V2000
   49.0360   53.3200   18.2350 C   0  0  0  0  0  0  0  0  0  0  0  0
   50.2210   53.8910   19.0150 C   0  0  0  0  0  0  0  0  0  0  0  0
   50.6390   52.9040   20.1080 C   0  0  1  0  0  0  0  0  0  0  0  0
   51.0770   51.5860   19.4600 C   0  0  0  0  0  0  0  0  0  0  0  0
   49.9930   51.1040   18.5910 N   0  0  0  0  0  0  0  0  0  0  0  0
   49.5040   49.8560   18.7340 C   0  0  0  0  0  0  0  0  0  0  0  0
   50.0190   49.0890   19.5180 O   0  0  0  0  0  0  0  0  0  0  0  0
   49.4550   52.0070   17.5660 C   0  0  0  0  0  0  0  0  0  0  0  0
   48.3160   49.4150   17.9180 C   0  0  0  0  0  0  0  0  0  0  0  0
   48.7780   48.4490   16.8220 C   0  0  0  0  0  0  0  0  0  0  0  0
   47.5580   47.9440   16.0480 C   0  0  0  0  0  0  0  0  0  0  0  0
   46.6460   47.2490   16.9650 N   0  0  0  0  0  0  0  0  0  0  0  0
   47.1390   46.4960   17.4210 H   0  0  0  0  0  0  0  0  0  0  0  0
   45.8700   46.8710   16.4420 H   0  0  0  0  0  0  0  0  0  0  0  0
   46.1440   48.1870   17.9750 C   0  0  0  0  0  0  0  0  0  0  0  0
   47.3090   48.7020   18.8230 C   0  0  0  0  0  0  0  0  0  0  0  0
   51.8030   53.4900   20.9090 C   0  0  0  0  0  0  0  0  0  0  0  0
   51.2880   54.4620   21.8780 N   0  0  0  0  0  0  0  0  0  0  0  0
   50.5730   54.2100   22.4830 H   0  0  0  0  0  0  0  0  0  0  0  0
   51.8080   55.7040   21.9270 C   0  0  0  0  0  0  0  0  0  0  0  0
   51.3350   56.5980   22.8180 N   0  0  0  0  0  0  0  0  0  0  0  0
   51.7080   57.4920   22.8530 H   0  0  0  0  0  0  0  0  0  0  0  0
   50.6190   56.3460   23.4230 H   0  0  0  0  0  0  0  0  0  0  0  0
   52.7040   56.0180   21.1670 O   0  0  0  0  0  0  0  0  0  0  0  0
  1  2  1  0  0  0  0
  2  3  1  0  0  0  0
  3 17  1  6  0  0  0
  4  3  1  0  0  0  0
  5  6  1  0  0  0  0
  5  4  1  0  0  0  0
  6  7  2  0  0  0  0
  8  1  1  0  0  0  0
  8  5  1  0  0  0  0
  9  6  1  0  0  0  0
  9 16  1  0  0  0  0
 10  9  1  0  0  0  0
 11 10  1  0  0  0  0
 11 12  1  0  0  0  0
 12 13  1  0  0  0  0
 12 15  1  0  0  0  0
 14 12  1  0  0  0  0
 15 16  1  0  0  0  0
 17 18  1  0  0  0  0
 18 20  1  0  0  0  0
 18 19  1  0  0  0  0
 20 21  1  0  0  0  0
 21 22  1  0  0  0  0
 21 23  1  0  0  0  0
 24 20  2  0  0  0  0
M  END
>  <MODEL>
2

>  <REMARK>
  Name = ZINC37820855
                            x       y       z     vdW  Elec       q    Type
                         _______ _______ _______ _____ _____    ______ ____

>  <TORSDO>
F 3

>  <minimizedAffinity>
-7.3393339672896918

$$$$
ZINC37820855
 OpenBabel10211213583D

 24 25  0  0  1  0  0  0  0  0999 V2000
   50.9090   51.5250   21.2040 C   0  0  0  0  0  0  0  0  0  0  0  0
   50.6170   50.5860   20.0310 C   0  0  0  0  0  0  0  0  0  0  0  0
   50.1910   51.4060   18.8110 C   0  0  1  0  0  0  0  0  0  0  0  0
   51.3320   52.3450   18.4070 C   0  0  0  0  0  0  0  0  0  0  0  0
   51.7160   53.1520   19.5740 N   0  0  0  0  0  0  0  0  0  0  0  0
   51.7540   54.4970   19.4950 C   0  0  0  0  0  0  0  0  0  0  0  0
   51.5620   55.0480   18.4320 O   0  0  0  0  0  0  0  0  0  0  0  0
   52.0570   52.4660   20.8270 C   0  0  0  0  0  0  0  0  0  0  0  0
   52.0340   55.3160   20.7290 C   0  0  0  0  0  0  0  0  0  0  0  0
   52.9180   56.5120   20.3590 C   0  0  0  0  0  0  0  0  0  0  0  0
   53.1320   57.3830   21.6000 C   0  0  0  0  0  0  0  0  0  0  0  0
   51.8360   57.8630   22.0950 N   0  0  0  0  0  0  0  0  0  0  0  0
   51.3630   58.3660   21.3600 H   0  0  0  0  0  0  0  0  0  0  0  0
   51.9860   58.4790   22.8800 H   0  0  0  0  0  0  0  0  0  0  0  0
   51.0120   56.7250   22.5180 C   0  0  0  0  0  0  0  0  0  0  0  0
   50.7150   55.8290   21.3130 C   0  0  0  0  0  0  0  0  0  0  0  0
   49.8690   50.4640   17.6490 C   0  0  0  0  0  0  0  0  0  0  0  0
   50.9880   50.4570   16.7030 N   0  0  0  0  0  0  0  0  0  0  0  0
   51.8480   50.8200   16.9660 H   0  0  0  0  0  0  0  0  0  0  0  0
   50.8200   49.9450   15.4680 C   0  0  0  0  0  0  0  0  0  0  0  0
   51.8490   49.9370   14.5960 N   0  0  0  0  0  0  0  0  0  0  0  0
   51.7290   49.5700   13.7070 H   0  0  0  0  0  0  0  0  0  0  0  0
   52.7090   50.3010   14.8590 H   0  0  0  0  0  0  0  0  0  0  0  0
   49.7420   49.4900   15.1390 O   0  0  0  0  0  0  0  0  0  0  0  0
  2  1  1  0  0  0  0
  3 17  1  6  0  0  0
  3  2  1  0  0  0  0
  4  3  1  0  0  0  0
  4  5  1  0  0  0  0
  5  8  1  0  0  0  0
  6  5  1  0  0  0  0
  6  9  1  0  0  0  0
  7  6  2  0  0  0  0
  8  1  1  0  0  0  0
  9 16  1  0  0  0  0
 10  9  1  0  0  0  0
 10 11  1  0  0  0  0
 11 12  1  0  0  0  0
 12 15  1  0  0  0  0
 12 14  1  0  0  0  0
 13 12  1  0  0  0  0
 16 15  1  0  0  0  0
 18 19  1  0  0  0  0
 18 17  1  0  0  0  0
 20 18  1  0  0  0  0
 21 23  1  0  0  0  0
 21 20  1  0  0  0  0
 22 21  1  0  0  0  0
 24 20  2  0  0  0  0
M  END
>  <MODEL>
3

>  <REMARK>
  Name = ZINC37820855
                            x       y       z     vdW  Elec       q    Type
                         _______ _______ _______ _____ _____    ______ ____

>  <TORSDO>
F 3

>  <minimizedAffinity>
-7.2748499839703289

$$$$
ZINC37820855
 OpenBabel10211213583D

 24 25  0  0  1  0  0  0  0  0999 V2000
   50.1270   49.3680   19.3930 C   0  0  0  0  0  0  0  0  0  0  0  0
   49.0630   48.7600   18.4760 C   0  0  0  0  0  0  0  0  0  0  0  0
   47.9920   49.8100   18.1690 C   0  0  1  0  0  0  0  0  0  0  0  0
   48.6360   50.9950   17.4430 C   0  0  0  0  0  0  0  0  0  0  0  0
   49.7560   51.4940   18.2540 N   0  0  0  0  0  0  0  0  0  0  0  0
   49.8270   52.7950   18.5990 C   0  0  0  0  0  0  0  0  0  0  0  0
   49.0160   53.5830   18.1620 O   0  0  0  0  0  0  0  0  0  0  0  0
   50.7960   50.5480   18.6810 C   0  0  0  0  0  0  0  0  0  0  0  0
   50.9150   53.2700   19.5270 C   0  0  0  0  0  0  0  0  0  0  0  0
   51.3260   54.6960   19.1470 C   0  0  0  0  0  0  0  0  0  0  0  0
   52.3740   55.2000   20.1420 C   0  0  0  0  0  0  0  0  0  0  0  0
   51.8090   55.1960   21.4970 N   0  0  0  0  0  0  0  0  0  0  0  0
   50.9740   55.7600   21.5130 H   0  0  0  0  0  0  0  0  0  0  0  0
   52.4840   55.5800   22.1420 H   0  0  0  0  0  0  0  0  0  0  0  0
   51.4800   53.8220   21.8950 C   0  0  0  0  0  0  0  0  0  0  0  0
   50.3980   53.2640   20.9680 C   0  0  0  0  0  0  0  0  0  0  0  0
   46.9110   49.1910   17.2790 C   0  0  0  0  0  0  0  0  0  0  0  0
   45.8660   48.6020   18.1200 N   0  0  0  0  0  0  0  0  0  0  0  0
   45.4020   49.1490   18.7720 H   0  0  0  0  0  0  0  0  0  0  0  0
   45.5500   47.2990   17.9850 C   0  0  0  0  0  0  0  0  0  0  0  0
   44.5880   46.7550   18.7580 N   0  0  0  0  0  0  0  0  0  0  0  0
   44.3610   45.8170   18.6620 H   0  0  0  0  0  0  0  0  0  0  0  0
   44.1240   47.3030   19.4110 H   0  0  0  0  0  0  0  0  0  0  0  0
   46.1320   46.6130   17.1670 O   0  0  0  0  0  0  0  0  0  0  0  0
  2  1  1  0  0  0  0
  3 17  1  6  0  0  0
  3  2  1  0  0  0  0
  4  3  1  0  0  0  0
  4  5  1  0  0  0  0
  5  6  1  0  0  0  0
  5  8  1  0  0  0  0
  6  9  1  0  0  0  0
  7  6  2  0  0  0  0
  8  1  1  0  0  0  0
  9 16  1  0  0  0  0
 10  9  1  0  0  0  0
 10 11  1  0  0  0  0
 11 12  1  0  0  0  0
 12 13  1  0  0  0  0
 12 15  1  0  0  0  0
 12 14  1  0  0  0  0
 16 15  1  0  0  0  0
 17 18  1  0  0  0  0
 18 19  1  0  0  0  0
 20 18  1  0  0  0  0
 20 21  1  0  0  0  0
 21 23  1  0  0  0  0
 22 21  1  0  0  0  0
 24 20  2  0  0  0  0
M  END
>  <MODEL>
4

>  <REMARK>
  Name = ZINC37820855
                            x       y       z     vdW  Elec       q    Type
                         _______ _______ _______ _____ _____    ______ ____

>  <TORSDO>
F 3

>  <minimizedAffinity>
-7.1938403911984317

$$$$
ZINC37820855
 OpenBabel10211213583D

 24 25  0  0  1  0  0  0  0  0999 V2000
   45.6960   47.8360   18.4070 C   0  0  0  0  0  0  0  0  0  0  0  0
   46.9550   48.6070   18.8110 C   0  0  0  0  0  0  0  0  0  0  0  0
   47.9350   48.6400   17.6360 C   0  0  1  0  0  0  0  0  0  0  0  0
   47.2850   49.3620   16.4520 C   0  0  0  0  0  0  0  0  0  0  0  0
   46.0000   48.7140   16.1500 N   0  0  0  0  0  0  0  0  0  0  0  0
   45.7280   48.2780   14.9040 C   0  0  0  0  0  0  0  0  0  0  0  0
   46.5040   48.5030   14.0000 O   0  0  0  0  0  0  0  0  0  0  0  0
   45.0200   48.5490   17.2320 C   0  0  0  0  0  0  0  0  0  0  0  0
   44.4600   47.5110   14.6350 C   0  0  0  0  0  0  0  0  0  0  0  0
   43.8280   48.0080   13.3310 C   0  0  0  0  0  0  0  0  0  0  0  0
   42.5840   47.1710   13.0220 C   0  0  0  0  0  0  0  0  0  0  0  0
   42.9620   45.7600   12.8790 N   0  0  0  0  0  0  0  0  0  0  0  0
   43.6620   45.6720   12.1580 H   0  0  0  0  0  0  0  0  0  0  0  0
   42.1490   45.2190   12.6230 H   0  0  0  0  0  0  0  0  0  0  0  0
   43.5020   45.2570   14.1480 C   0  0  0  0  0  0  0  0  0  0  0  0
   44.7810   46.0200   14.5000 C   0  0  0  0  0  0  0  0  0  0  0  0
   49.2070   49.3830   18.0520 C   0  0  0  0  0  0  0  0  0  0  0  0
   50.0330   48.5050   18.8850 N   0  0  0  0  0  0  0  0  0  0  0  0
   50.1250   47.5670   18.6600 H   0  0  0  0  0  0  0  0  0  0  0  0
   50.6660   49.0040   19.9650 C   0  0  0  0  0  0  0  0  0  0  0  0
   51.4270   48.1990   20.7330 N   0  0  0  0  0  0  0  0  0  0  0  0
   51.8820   48.5570   21.5100 H   0  0  0  0  0  0  0  0  0  0  0  0
   51.5180   47.2590   20.5070 H   0  0  0  0  0  0  0  0  0  0  0  0
   50.5510   50.1820   20.2470 O   0  0  0  0  0  0  0  0  0  0  0  0
  1  2  1  0  0  0  0
  3 17  1  1  0  0  0
  3  2  1  0  0  0  0
  4  3  1  0  0  0  0
  5  4  1  0  0  0  0
  5  8  1  0  0  0  0
  6  5  1  0  0  0  0
  7  6  2  0  0  0  0
  8  1  1  0  0  0  0
  9  6  1  0  0  0  0
 10  9  1  0  0  0  0
 11 10  1  0  0  0  0
 12 11  1  0  0  0  0
 12 15  1  0  0  0  0
 13 12  1  0  0  0  0
 14 12  1  0  0  0  0
 15 16  1  0  0  0  0
 16  9  1  0  0  0  0
 17 18  1  0  0  0  0
 18 20  1  0  0  0  0
 19 18  1  0  0  0  0
 20 24  2  0  0  0  0
 20 21  1  0  0  0  0
 21 22  1  0  0  0  0
 23 21  1  0  0  0  0
M  END
>  <MODEL>
5

>  <REMARK>
  Name = ZINC37820855
                            x       y       z     vdW  Elec       q    Type
                         _______ _______ _______ _____ _____    ______ ____

>  <TORSDO>
F 3

>  <minimizedAffinity>
-6.9559886453738375

$$$$
ZINC37820855
 OpenBabel10211213583D

 24 25  0  0  1  0  0  0  0  0999 V2000
   48.5000   54.4230   17.7550 C   0  0  0  0  0  0  0  0  0  0  0  0
   48.3230   52.9550   17.3610 C   0  0  0  0  0  0  0  0  0  0  0  0
   49.6480   52.2110   17.5470 C   0  0  1  0  0  0  0  0  0  0  0  0
   50.0600   52.2700   19.0220 C   0  0  0  0  0  0  0  0  0  0  0  0
   50.0910   53.6760   19.4480 N   0  0  0  0  0  0  0  0  0  0  0  0
   51.1930   54.1930   20.0280 C   0  0  0  0  0  0  0  0  0  0  0  0
   52.1350   53.4750   20.2870 O   0  0  0  0  0  0  0  0  0  0  0  0
   48.8990   54.5070   19.2320 C   0  0  0  0  0  0  0  0  0  0  0  0
   51.2540   55.6630   20.3520 C   0  0  0  0  0  0  0  0  0  0  0  0
   50.7170   55.8970   21.7680 C   0  0  0  0  0  0  0  0  0  0  0  0
   50.8560   57.3800   22.1210 C   0  0  0  0  0  0  0  0  0  0  0  0
   52.2690   57.7710   22.0600 N   0  0  0  0  0  0  0  0  0  0  0  0
   52.8050   57.1850   22.6820 H   0  0  0  0  0  0  0  0  0  0  0  0
   52.3620   58.7340   22.3460 H   0  0  0  0  0  0  0  0  0  0  0  0
   52.7710   57.6170   20.6900 C   0  0  0  0  0  0  0  0  0  0  0  0
   52.7060   56.1430   20.2810 C   0  0  0  0  0  0  0  0  0  0  0  0
   49.4790   50.7510   17.1220 C   0  0  0  0  0  0  0  0  0  0  0  0
   50.6670   50.3180   16.3800 N   0  0  0  0  0  0  0  0  0  0  0  0
   51.5410   50.3630   16.7970 H   0  0  0  0  0  0  0  0  0  0  0  0
   50.5420   49.8580   15.1200 C   0  0  0  0  0  0  0  0  0  0  0  0
   51.6340   49.4590   14.4370 N   0  0  0  0  0  0  0  0  0  0  0  0
   51.5450   49.1290   13.5300 H   0  0  0  0  0  0  0  0  0  0  0  0
   52.5090   49.5050   14.8540 H   0  0  0  0  0  0  0  0  0  0  0  0
   49.4450   49.8020   14.5990 O   0  0  0  0  0  0  0  0  0  0  0  0
  1  8  1  0  0  0  0
  2  3  1  0  0  0  0
  2  1  1  0  0  0  0
  3 17  1  1  0  0  0
  3  4  1  0  0  0  0
  4  5  1  0  0  0  0
  5  6  1  0  0  0  0
  6  7  2  0  0  0  0
  6  9  1  0  0  0  0
  8  5  1  0  0  0  0
  9 10  1  0  0  0  0
 10 11  1  0  0  0  0
 12 11  1  0  0  0  0
 12 14  1  0  0  0  0
 12 13  1  0  0  0  0
 15 12  1  0  0  0  0
 16  9  1  0  0  0  0
 16 15  1  0  0  0  0
 18 19  1  0  0  0  0
 18 17  1  0  0  0  0
 20 18  1  0  0  0  0
 21 23  1  0  0  0  0
 21 20  1  0  0  0  0
 22 21  1  0  0  0  0
 24 20  2  0  0  0  0
M  END
>  <MODEL>
6

>  <REMARK>
  Name = ZINC37820855
                            x       y       z     vdW  Elec       q    Type
                         _______ _______ _______ _____ _____    ______ ____

>  <TORSDO>
F 3

>  <minimizedAffinity>
-6.9527946090362338

$$$$
ZINC37820855
 OpenBabel10211213583D

 24 25  0  0  1  0  0  0  0  0999 V2000
   51.4370   55.0410   22.0820 C   0  0  0  0  0  0  0  0  0  0  0  0
   51.7550   53.5450   22.0950 C   0  0  0  0  0  0  0  0  0  0  0  0
   50.5930   52.7680   21.4700 C   0  0  1  0  0  0  0  0  0  0  0  0
   50.4120   53.2110   20.0150 C   0  0  0  0  0  0  0  0  0  0  0  0
   50.2500   54.6720   19.9820 N   0  0  0  0  0  0  0  0  0  0  0  0
   49.1900   55.2310   19.3650 C   0  0  0  0  0  0  0  0  0  0  0  0
   48.4100   54.5360   18.7500 O   0  0  0  0  0  0  0  0  0  0  0  0
   51.2650   55.5100   20.6340 C   0  0  0  0  0  0  0  0  0  0  0  0
   48.9740   56.7210   19.4400 C   0  0  0  0  0  0  0  0  0  0  0  0
   48.0980   57.1710   18.2670 C   0  0  0  0  0  0  0  0  0  0  0  0
   47.8170   58.6700   18.3940 C   0  0  0  0  0  0  0  0  0  0  0  0
   47.1210   58.9360   19.6580 N   0  0  0  0  0  0  0  0  0  0  0  0
   46.2730   58.3910   19.6940 H   0  0  0  0  0  0  0  0  0  0  0  0
   46.8900   59.9170   19.7130 H   0  0  0  0  0  0  0  0  0  0  0  0
   47.9840   58.5730   20.7880 C   0  0  0  0  0  0  0  0  0  0  0  0
   48.2710   57.0710   20.7540 C   0  0  0  0  0  0  0  0  0  0  0  0
   50.8980   51.2700   21.5140 C   0  0  0  0  0  0  0  0  0  0  0  0
   52.0240   50.9750   20.6220 N   0  0  0  0  0  0  0  0  0  0  0  0
   52.7200   51.6360   20.4850 H   0  0  0  0  0  0  0  0  0  0  0  0
   52.0900   49.7850   19.9930 C   0  0  0  0  0  0  0  0  0  0  0  0
   53.1250   49.5130   19.1730 N   0  0  0  0  0  0  0  0  0  0  0  0
   53.1720   48.6570   18.7200 H   0  0  0  0  0  0  0  0  0  0  0  0
   53.8210   50.1740   19.0360 H   0  0  0  0  0  0  0  0  0  0  0  0
   51.2160   48.9570   20.1650 O   0  0  0  0  0  0  0  0  0  0  0  0
  1  2  1  0  0  0  0
  3 17  1  6  0  0  0
  3  2  1  0  0  0  0
  4  3  1  0  0  0  0
  5  4  1  0  0  0  0
  5  8  1  0  0  0  0
  6  9  1  0  0  0  0
  6  5  1  0  0  0  0
  7  6  2  0  0  0  0
  8  1  1  0  0  0  0
  9 16  1  0  0  0  0
 10 11  1  0  0  0  0
 10  9  1  0  0  0  0
 11 12  1  0  0  0  0
 12 13  1  0  0  0  0
 12 14  1  0  0  0  0
 12 15  1  0  0  0  0
 16 15  1  0  0  0  0
 18 17  1  0  0  0  0
 19 18  1  0  0  0  0
 20 24  2  0  0  0  0
 20 18  1  0  0  0  0
 21 20  1  0  0  0  0
 22 21  1  0  0  0  0
 23 21  1  0  0  0  0
M  END
>  <MODEL>
7

>  <REMARK>
  Name = ZINC37820855
                            x       y       z     vdW  Elec       q    Type
                         _______ _______ _______ _____ _____    ______ ____

>  <TORSDO>
F 3

>  <minimizedAffinity>
-6.8608013678455348

$$$$
ZINC37820855
 OpenBabel10211213583D

 24 25  0  0  1  0  0  0  0  0999 V2000
   49.2130   49.9060   15.1900 C   0  0  0  0  0  0  0  0  0  0  0  0
   50.0670   50.3950   16.3630 C   0  0  0  0  0  0  0  0  0  0  0  0
   49.2680   50.2720   17.6630 C   0  0  1  0  0  0  0  0  0  0  0  0
   48.9130   48.8020   17.9040 C   0  0  0  0  0  0  0  0  0  0  0  0
   48.2180   48.2830   16.7170 N   0  0  0  0  0  0  0  0  0  0  0  0
   47.0160   47.6830   16.8330 C   0  0  0  0  0  0  0  0  0  0  0  0
   46.5430   47.4820   17.9300 O   0  0  0  0  0  0  0  0  0  0  0  0
   48.8570   48.4320   15.4030 C   0  0  0  0  0  0  0  0  0  0  0  0
   46.2630   47.2620   15.5980 C   0  0  0  0  0  0  0  0  0  0  0  0
   45.6800   45.8610   15.8060 C   0  0  0  0  0  0  0  0  0  0  0  0
   44.8490   45.4730   14.5800 C   0  0  0  0  0  0  0  0  0  0  0  0
   43.7580   46.4370   14.3990 N   0  0  0  0  0  0  0  0  0  0  0  0
   43.1980   46.4700   15.2370 H   0  0  0  0  0  0  0  0  0  0  0  0
   43.1810   46.1480   13.6230 H   0  0  0  0  0  0  0  0  0  0  0  0
   44.3100   47.7700   14.1280 C   0  0  0  0  0  0  0  0  0  0  0  0
   45.1190   48.2470   15.3360 C   0  0  0  0  0  0  0  0  0  0  0  0
   50.1100   50.7920   18.8310 C   0  0  0  0  0  0  0  0  0  0  0  0
   50.9570   49.7090   19.3410 N   0  0  0  0  0  0  0  0  0  0  0  0
   50.5550   48.8760   19.6320 H   0  0  0  0  0  0  0  0  0  0  0  0
   52.2930   49.8740   19.4050 C   0  0  0  0  0  0  0  0  0  0  0  0
   53.0720   48.8790   19.8740 N   0  0  0  0  0  0  0  0  0  0  0  0
   54.0330   48.9970   19.9210 H   0  0  0  0  0  0  0  0  0  0  0  0
   52.6700   48.0450   20.1650 H   0  0  0  0  0  0  0  0  0  0  0  0
   52.7950   50.9190   19.0400 O   0  0  0  0  0  0  0  0  0  0  0  0
  1  8  1  0  0  0  0
  1  2  1  0  0  0  0
  2  3  1  0  0  0  0
  3  4  1  0  0  0  0
  3 17  1  1  0  0  0
  5  6  1  0  0  0  0
  5  4  1  0  0  0  0
  6  7  2  0  0  0  0
  8  5  1  0  0  0  0
  9 10  1  0  0  0  0
  9  6  1  0  0  0  0
 11 10  1  0  0  0  0
 12 11  1  0  0  0  0
 12 13  1  0  0  0  0
 14 12  1  0  0  0  0
 15 12  1  0  0  0  0
 15 16  1  0  0  0  0
 16  9  1  0  0  0  0
 17 18  1  0  0  0  0
 18 20  1  0  0  0  0
 18 19  1  0  0  0  0
 20 21  1  0  0  0  0
 21 22  1  0  0  0  0
 21 23  1  0  0  0  0
 24 20  2  0  0  0  0
M  END
>  <MODEL>
8

>  <REMARK>
  Name = ZINC37820855
                            x       y       z     vdW  Elec       q    Type
                         _______ _______ _______ _____ _____    ______ ____

>  <TORSDO>
F 3

>  <minimizedAffinity>
-6.8586610622051571

$$$$
ZINC37820855
 OpenBabel10211213583D

 24 25  0  0  1  0  0  0  0  0999 V2000
   52.5300   53.9550   19.3740 C   0  0  0  0  0  0  0  0  0  0  0  0
   52.3770   52.5770   18.7260 C   0  0  0  0  0  0  0  0  0  0  0  0
   50.9700   52.0370   18.9960 C   0  0  1  0  0  0  0  0  0  0  0  0
   49.9370   52.9810   18.3740 C   0  0  0  0  0  0  0  0  0  0  0  0
   50.1700   54.3400   18.8830 N   0  0  0  0  0  0  0  0  0  0  0  0
   49.1700   55.0390   19.4560 C   0  0  0  0  0  0  0  0  0  0  0  0
   48.0450   54.5880   19.4690 O   0  0  0  0  0  0  0  0  0  0  0  0
   51.5130   54.9210   18.7560 C   0  0  0  0  0  0  0  0  0  0  0  0
   49.4510   56.3820   20.0780 C   0  0  0  0  0  0  0  0  0  0  0  0
   48.1280   57.0710   20.4290 C   0  0  0  0  0  0  0  0  0  0  0  0
   48.4220   58.3980   21.1330 C   0  0  0  0  0  0  0  0  0  0  0  0
   49.1850   58.1460   22.3610 N   0  0  0  0  0  0  0  0  0  0  0  0
   48.6680   57.5130   22.9520 H   0  0  0  0  0  0  0  0  0  0  0  0
   49.3300   59.0170   22.8500 H   0  0  0  0  0  0  0  0  0  0  0  0
   50.4850   57.5510   22.0270 C   0  0  0  0  0  0  0  0  0  0  0  0
   50.2710   56.1920   21.3570 C   0  0  0  0  0  0  0  0  0  0  0  0
   50.8300   50.6450   18.3750 C   0  0  0  0  0  0  0  0  0  0  0  0
   51.4870   49.6590   19.2370 N   0  0  0  0  0  0  0  0  0  0  0  0
   52.4540   49.5890   19.2450 H   0  0  0  0  0  0  0  0  0  0  0  0
   50.7470   48.8490   20.0190 C   0  0  0  0  0  0  0  0  0  0  0  0
   51.3500   47.9410   20.8120 N   0  0  0  0  0  0  0  0  0  0  0  0
   50.8180   47.3570   21.3740 H   0  0  0  0  0  0  0  0  0  0  0  0
   52.3180   47.8720   20.8190 H   0  0  0  0  0  0  0  0  0  0  0  0
   49.5340   48.9360   20.0090 O   0  0  0  0  0  0  0  0  0  0  0  0
  2  3  1  0  0  0  0
  2  1  1  0  0  0  0
  3 17  1  6  0  0  0
  4  5  1  0  0  0  0
  4  3  1  0  0  0  0
  5  6  1  0  0  0  0
  6  7  2  0  0  0  0
  6  9  1  0  0  0  0
  8  5  1  0  0  0  0
  8  1  1  0  0  0  0
  9 10  1  0  0  0  0
  9 16  1  0  0  0  0
 10 11  1  0  0  0  0
 11 12  1  0  0  0  0
 12 14  1  0  0  0  0
 12 13  1  0  0  0  0
 15 12  1  0  0  0  0
 16 15  1  0  0  0  0
 17 18  1  0  0  0  0
 18 19  1  0  0  0  0
 18 20  1  0  0  0  0
 20 21  1  0  0  0  0
 21 23  1  0  0  0  0
 21 22  1  0  0  0  0
 24 20  2  0  0  0  0
M  END
>  <MODEL>
9

>  <REMARK>
  Name = ZINC37820855
                            x       y       z     vdW  Elec       q    Type
                         _______ _______ _______ _____ _____    ______ ____

>  <TORSDO>
F 3

>  <minimizedAffinity>
-6.8519408185413999

$$$$
ZINC63213314
 OpenBabel10211213583D

 26 27  0  0  1  0  0  0  0  0999 V2000
   52.0000   50.0190   19.3580 S   0  0  0  0  0  0  0  0  0  0  0  0
   51.6330   48.9600   20.2320 O   0  0  0  0  0  0  0  0  0  0  0  0
   53.2400   50.0400   18.6650 O   0  0  0  0  0  0  0  0  0  0  0  0
   51.7670   51.4510   21.6470 C   0  0  0  0  0  0  0  0  0  0  0  0
   51.9290   51.5020   20.3070 C   0  0  0  0  0  0  0  0  0  0  0  0
   52.0410   52.7640   19.6750 C   0  0  0  0  0  0  0  0  0  0  0  0
   51.9840   53.8860   20.4210 N   0  0  0  0  0  0  0  0  0  0  0  0
   51.8230   53.8050   21.7550 C   0  0  0  0  0  0  0  0  0  0  0  0
   51.7730   54.8250   22.4150 O   0  0  0  0  0  0  0  0  0  0  0  0
   52.0610   54.7540   19.9950 H   0  0  0  0  0  0  0  0  0  0  0  0
   52.1870   52.8360   18.4680 O   0  0  0  0  0  0  0  0  0  0  0  0
   51.7140   52.6120   22.3680 N   0  0  0  0  0  0  0  0  0  0  0  0
   51.5970   52.5750   23.3300 H   0  0  0  0  0  0  0  0  0  0  0  0
   50.8130   50.1170   18.2080 N   0  0  0  0  0  0  0  0  0  0  0  0
   51.0480   50.1110   17.2660 H   0  0  0  0  0  0  0  0  0  0  0  0
   49.4080   50.2110   18.6100 C   0  0  2  0  0  0  0  0  0  0  0  0
   48.8230   48.7900   18.7120 C   0  0  0  0  0  0  0  0  0  0  0  0
   47.3190   48.7840   18.7070 C   0  0  0  0  0  0  0  0  0  0  0  0
   46.8350   48.5700   17.2570 C   0  0  0  0  0  0  0  0  0  0  0  0
   46.8800   49.7950   16.4710 C   0  0  0  0  0  0  0  0  0  0  0  0
   48.3110   50.3530   16.3330 C   0  0  0  0  0  0  0  0  0  0  0  0
   48.6580   51.0930   17.5940 C   0  0  2  0  0  0  0  0  0  0  0  0
   49.5020   52.2450   17.2490 N   0  0  0  0  0  0  0  0  0  0  0  0
   48.9720   52.8910   16.6820 H   0  0  0  0  0  0  0  0  0  0  0  0
   50.3080   51.9270   16.7320 H   0  0  0  0  0  0  0  0  0  0  0  0
   49.8030   52.7060   18.0940 H   0  0  0  0  0  0  0  0  0  0  0  0
  1  2  2  0  0  0  0
  1  5  1  0  0  0  0
  3  1  2  0  0  0  0
  4 12  1  0  0  0  0
  5  4  2  0  0  0  0
  6  5  1  0  0  0  0
  6  7  1  0  0  0  0
  7  8  1  0  0  0  0
  8 12  1  0  0  0  0
  8  9  2  0  0  0  0
 10  7  1  0  0  0  0
 11  6  2  0  0  0  0
 12 13  1  0  0  0  0
 14  1  1  0  0  0  0
 15 14  1  0  0  0  0
 16 14  1  6  0  0  0
 16 17  1  0  0  0  0
 18 17  1  0  0  0  0
 19 18  1  0  0  0  0
 20 19  1  0  0  0  0
 21 20  1  0  0  0  0
 21 22  1  0  0  0  0
 22 23  1  6  0  0  0
 22 16  1  0  0  0  0
 23 26  1  0  0  0  0
 24 23  1  0  0  0  0
 25 23  1  0  0  0  0
M  END
>  <MODEL>
1

>  <REMARK>
  Name = ZINC63213314
                            x       y       z     vdW  Elec       q    Type
                         _______ _______ _______ _____ _____    ______ ____

>  <TORSDO>
F 4

>  <minimizedAffinity>
-7.8660700220548812

$$$$
ZINC63213314
 OpenBabel10211213583D

 26 27  0  0  1  0  0  0  0  0999 V2000
   50.5320   53.1120   18.6410 S   0  0  0  0  0  0  0  0  0  0  0  0
   49.5820   52.9930   17.5910 O   0  0  0  0  0  0  0  0  0  0  0  0
   51.8620   53.5620   18.4190 O   0  0  0  0  0  0  0  0  0  0  0  0
   50.3630   50.4080   18.6840 C   0  0  0  0  0  0  0  0  0  0  0  0
   50.6570   51.5220   19.3890 C   0  0  0  0  0  0  0  0  0  0  0  0
   51.0670   51.3940   20.7390 C   0  0  0  0  0  0  0  0  0  0  0  0
   51.1550   50.1670   21.2900 N   0  0  0  0  0  0  0  0  0  0  0  0
   50.8570   49.0740   20.5640 C   0  0  0  0  0  0  0  0  0  0  0  0
   50.9410   47.9740   21.0750 O   0  0  0  0  0  0  0  0  0  0  0  0
   51.4360   50.0720   22.2140 H   0  0  0  0  0  0  0  0  0  0  0  0
   51.3370   52.3830   21.3950 O   0  0  0  0  0  0  0  0  0  0  0  0
   50.4650   49.1820   19.2810 N   0  0  0  0  0  0  0  0  0  0  0  0
   50.2530   48.3820   18.7750 H   0  0  0  0  0  0  0  0  0  0  0  0
   49.8700   54.1320   19.7660 N   0  0  0  0  0  0  0  0  0  0  0  0
   49.2110   53.7970   20.3950 H   0  0  0  0  0  0  0  0  0  0  0  0
   50.2770   55.5370   19.8110 C   0  0  2  0  0  0  0  0  0  0  0  0
   50.5770   55.9210   21.2720 C   0  0  0  0  0  0  0  0  0  0  0  0
   50.5950   57.4110   21.4840 C   0  0  0  0  0  0  0  0  0  0  0  0
   49.1950   57.8560   21.9550 C   0  0  0  0  0  0  0  0  0  0  0  0
   48.2520   57.9770   20.8530 C   0  0  0  0  0  0  0  0  0  0  0  0
   48.0180   56.6360   20.1290 C   0  0  0  0  0  0  0  0  0  0  0  0
   49.1640   56.3980   19.1850 C   0  0  2  0  0  0  0  0  0  0  0  0
   48.6550   55.7200   17.9860 N   0  0  0  0  0  0  0  0  0  0  0  0
   48.4210   56.4070   17.2840 H   0  0  0  0  0  0  0  0  0  0  0  0
   47.8300   55.1890   18.2250 H   0  0  0  0  0  0  0  0  0  0  0  0
   49.3630   55.0980   17.6250 H   0  0  0  0  0  0  0  0  0  0  0  0
  1  5  1  0  0  0  0
  1 14  1  0  0  0  0
  2  1  2  0  0  0  0
  3  1  2  0  0  0  0
  4 12  1  0  0  0  0
  4  5  2  0  0  0  0
  5  6  1  0  0  0  0
  6  7  1  0  0  0  0
  6 11  2  0  0  0  0
  7 10  1  0  0  0  0
  8  9  2  0  0  0  0
  8  7  1  0  0  0  0
 12  8  1  0  0  0  0
 13 12  1  0  0  0  0
 14 15  1  0  0  0  0
 16 14  1  1  0  0  0
 16 17  1  0  0  0  0
 17 18  1  0  0  0  0
 18 19  1  0  0  0  0
 20 19  1  0  0  0  0
 21 20  1  0  0  0  0
 22 23  1  1  0  0  0
 22 16  1  0  0  0  0
 22 21  1  0  0  0  0
 23 25  1  0  0  0  0
 24 23  1  0  0  0  0
 26 23  1  0  0  0  0
M  END
>  <MODEL>
2

>  <REMARK>
  Name = ZINC63213314
                            x       y       z     vdW  Elec       q    Type
                         _______ _______ _______ _____ _____    ______ ____

>  <TORSDO>
F 4

>  <minimizedAffinity>
-7.864457637829533

$$$$
ZINC63213314
 OpenBabel10211213583D

 26 27  0  0  1  0  0  0  0  0999 V2000
   51.3800   53.1070   19.5960 S   0  0  0  0  0  0  0  0  0  0  0  0
   52.0160   53.6170   18.4320 O   0  0  0  0  0  0  0  0  0  0  0  0
   52.0860   52.8610   20.8050 O   0  0  0  0  0  0  0  0  0  0  0  0
   51.0910   50.4130   19.6280 C   0  0  0  0  0  0  0  0  0  0  0  0
   50.6300   51.5810   19.1320 C   0  0  0  0  0  0  0  0  0  0  0  0
   49.5350   51.5640   18.2340 C   0  0  0  0  0  0  0  0  0  0  0  0
   48.9770   50.3850   17.8930 N   0  0  0  0  0  0  0  0  0  0  0  0
   49.4570   49.2350   18.4030 C   0  0  0  0  0  0  0  0  0  0  0  0
   48.9430   48.1800   18.0860 O   0  0  0  0  0  0  0  0  0  0  0  0
   48.2270   50.3660   17.2790 H   0  0  0  0  0  0  0  0  0  0  0  0
   49.1020   52.6040   17.7740 O   0  0  0  0  0  0  0  0  0  0  0  0
   50.4970   49.2380   19.2560 N   0  0  0  0  0  0  0  0  0  0  0  0
   50.8280   48.3980   19.6120 H   0  0  0  0  0  0  0  0  0  0  0  0
   50.1570   54.1600   19.9680 N   0  0  0  0  0  0  0  0  0  0  0  0
   49.2860   53.8190   20.2260 H   0  0  0  0  0  0  0  0  0  0  0  0
   50.3910   55.6040   19.9090 C   0  0  2  0  0  0  0  0  0  0  0  0
   50.5700   56.1370   21.3440 C   0  0  0  0  0  0  0  0  0  0  0  0
   50.3980   57.6300   21.4280 C   0  0  0  0  0  0  0  0  0  0  0  0
   48.9330   57.9350   21.8040 C   0  0  0  0  0  0  0  0  0  0  0  0
   48.0380   57.8500   20.6590 C   0  0  0  0  0  0  0  0  0  0  0  0
   48.0030   56.4370   20.0430 C   0  0  0  0  0  0  0  0  0  0  0  0
   49.2140   56.2680   19.1690 C   0  0  2  0  0  0  0  0  0  0  0  0
   48.8500   55.4380   18.0130 N   0  0  0  0  0  0  0  0  0  0  0  0
   49.1420   54.4860   18.1790 H   0  0  0  0  0  0  0  0  0  0  0  0
   49.3100   55.7920   17.1870 H   0  0  0  0  0  0  0  0  0  0  0  0
   47.8500   55.4660   17.8810 H   0  0  0  0  0  0  0  0  0  0  0  0
  1 14  1  0  0  0  0
  1  3  2  0  0  0  0
  2  1  2  0  0  0  0
  5  1  1  0  0  0  0
  5  4  2  0  0  0  0
  6  5  1  0  0  0  0
  7  6  1  0  0  0  0
  7  8  1  0  0  0  0
  8 12  1  0  0  0  0
  9  8  2  0  0  0  0
 10  7  1  0  0  0  0
 11  6  2  0  0  0  0
 12 13  1  0  0  0  0
 12  4  1  0  0  0  0
 14 15  1  0  0  0  0
 16 14  1  1  0  0  0
 16 17  1  0  0  0  0
 17 18  1  0  0  0  0
 18 19  1  0  0  0  0
 20 19  1  0  0  0  0
 21 20  1  0  0  0  0
 22 23  1  1  0  0  0
 22 16  1  0  0  0  0
 22 21  1  0  0  0  0
 23 24  1  0  0  0  0
 25 23  1  0  0  0  0
 26 23  1  0  0  0  0
M  END
>  <MODEL>
3

>  <REMARK>
  Name = ZINC63213314
                            x       y       z     vdW  Elec       q    Type
                         _______ _______ _______ _____ _____    ______ ____

>  <TORSDO>
F 4

>  <minimizedAffinity>
-7.7494947967048082

$$$$
ZINC63213314
 OpenBabel10211213583D

 26 27  0  0  1  0  0  0  0  0999 V2000
   52.4280   50.7930   18.4400 S   0  0  0  0  0  0  0  0  0  0  0  0
   53.1480   49.8420   19.2120 O   0  0  0  0  0  0  0  0  0  0  0  0
   52.9620   51.3780   17.2600 O   0  0  0  0  0  0  0  0  0  0  0  0
   52.4740   53.3730   19.2690 C   0  0  0  0  0  0  0  0  0  0  0  0
   52.0300   52.1230   19.5250 C   0  0  0  0  0  0  0  0  0  0  0  0
   51.2390   51.8960   20.6780 C   0  0  0  0  0  0  0  0  0  0  0  0
   50.9460   52.9290   21.4940 N   0  0  0  0  0  0  0  0  0  0  0  0
   51.4020   54.1640   21.2140 C   0  0  0  0  0  0  0  0  0  0  0  0
   51.1300   55.0860   21.9590 O   0  0  0  0  0  0  0  0  0  0  0  0
   50.4040   52.7810   22.2840 H   0  0  0  0  0  0  0  0  0  0  0  0
   50.8270   50.7790   20.9300 O   0  0  0  0  0  0  0  0  0  0  0  0
   52.1540   54.3930   20.1230 N   0  0  0  0  0  0  0  0  0  0  0  0
   52.4740   55.2910   19.9390 H   0  0  0  0  0  0  0  0  0  0  0  0
   51.0020   50.0700   18.0070 N   0  0  0  0  0  0  0  0  0  0  0  0
   50.8350   49.1460   18.2490 H   0  0  0  0  0  0  0  0  0  0  0  0
   49.9950   50.8260   17.2610 C   0  0  2  0  0  0  0  0  0  0  0  0
   48.6610   50.7690   18.0300 C   0  0  0  0  0  0  0  0  0  0  0  0
   47.4840   51.1440   17.1700 C   0  0  0  0  0  0  0  0  0  0  0  0
   46.8730   49.8540   16.5860 C   0  0  0  0  0  0  0  0  0  0  0  0
   47.6160   49.3590   15.4360 C   0  0  0  0  0  0  0  0  0  0  0  0
   49.0690   48.9850   15.7910 C   0  0  0  0  0  0  0  0  0  0  0  0
   49.8880   50.2440   15.8390 C   0  0  2  0  0  0  0  0  0  0  0  0
   51.2390   49.9480   15.3440 N   0  0  0  0  0  0  0  0  0  0  0  0
   51.9140   50.4830   15.8710 H   0  0  0  0  0  0  0  0  0  0  0  0
   51.3010   50.1960   14.3680 H   0  0  0  0  0  0  0  0  0  0  0  0
   51.4290   48.9630   15.4550 H   0  0  0  0  0  0  0  0  0  0  0  0
  1  2  2  0  0  0  0
  1  5  1  0  0  0  0
  3  1  2  0  0  0  0
  4  5  2  0  0  0  0
  4 12  1  0  0  0  0
  5  6  1  0  0  0  0
  6 11  2  0  0  0  0
  6  7  1  0  0  0  0
  7 10  1  0  0  0  0
  8  7  1  0  0  0  0
  8  9  2  0  0  0  0
 12  8  1  0  0  0  0
 13 12  1  0  0  0  0
 14 15  1  0  0  0  0
 14  1  1  0  0  0  0
 16 14  1  1  0  0  0
 16 17  1  0  0  0  0
 18 17  1  0  0  0  0
 19 18  1  0  0  0  0
 20 21  1  0  0  0  0
 20 19  1  0  0  0  0
 21 22  1  0  0  0  0
 22 23  1  1  0  0  0
 22 16  1  0  0  0  0
 23 26  1  0  0  0  0
 23 24  1  0  0  0  0
 25 23  1  0  0  0  0
M  END
>  <MODEL>
4

>  <REMARK>
  Name = ZINC63213314
                            x       y       z     vdW  Elec       q    Type
                         _______ _______ _______ _____ _____    ______ ____

>  <TORSDO>
F 4

>  <minimizedAffinity>
-7.5414007739063527

$$$$
ZINC63213314
 OpenBabel10211213583D

 26 27  0  0  1  0  0  0  0  0999 V2000
   51.4860   54.3890   20.8960 S   0  0  0  0  0  0  0  0  0  0  0  0
   52.1180   54.4390   22.1690 O   0  0  0  0  0  0  0  0  0  0  0  0
   52.2070   54.5480   19.6810 O   0  0  0  0  0  0  0  0  0  0  0  0
   50.3440   56.7060   21.7140 C   0  0  0  0  0  0  0  0  0  0  0  0
   50.2350   55.6290   20.9060 C   0  0  0  0  0  0  0  0  0  0  0  0
   49.1010   55.5110   20.0660 C   0  0  0  0  0  0  0  0  0  0  0  0
   48.1560   56.4720   20.0900 N   0  0  0  0  0  0  0  0  0  0  0  0
   48.2910   57.5350   20.9050 C   0  0  0  0  0  0  0  0  0  0  0  0
   47.4300   58.3940   20.9160 O   0  0  0  0  0  0  0  0  0  0  0  0
   47.3770   56.3980   19.5170 H   0  0  0  0  0  0  0  0  0  0  0  0
   48.9810   54.5500   19.3280 O   0  0  0  0  0  0  0  0  0  0  0  0
   49.3630   57.6590   21.7090 N   0  0  0  0  0  0  0  0  0  0  0  0
   49.4400   58.4320   22.2900 H   0  0  0  0  0  0  0  0  0  0  0  0
   50.7220   52.9230   20.8050 N   0  0  0  0  0  0  0  0  0  0  0  0
   49.9500   52.7430   21.3650 H   0  0  0  0  0  0  0  0  0  0  0  0
   51.2090   51.8990   19.8790 C   0  0  2  0  0  0  0  0  0  0  0  0
   50.0680   51.5130   18.9180 C   0  0  0  0  0  0  0  0  0  0  0  0
   50.3220   50.2050   18.2190 C   0  0  0  0  0  0  0  0  0  0  0  0
   49.6390   49.0790   19.0230 C   0  0  0  0  0  0  0  0  0  0  0  0
   50.4250   48.6680   20.1770 C   0  0  0  0  0  0  0  0  0  0  0  0
   50.6260   49.8130   21.1900 C   0  0  0  0  0  0  0  0  0  0  0  0
   51.7330   50.7000   20.6940 C   0  0  2  0  0  0  0  0  0  0  0  0
   52.4890   51.2040   21.8480 N   0  0  0  0  0  0  0  0  0  0  0  0
   52.7250   50.4330   22.4560 H   0  0  0  0  0  0  0  0  0  0  0  0
   51.9250   51.8700   22.3540 H   0  0  0  0  0  0  0  0  0  0  0  0
   53.3340   51.6510   21.5270 H   0  0  0  0  0  0  0  0  0  0  0  0
  1  5  1  0  0  0  0
  1  2  2  0  0  0  0
  3  1  2  0  0  0  0
  5  4  2  0  0  0  0
  6  7  1  0  0  0  0
  6  5  1  0  0  0  0
  7  8  1  0  0  0  0
  8  9  2  0  0  0  0
  8 12  1  0  0  0  0
 10  7  1  0  0  0  0
 11  6  2  0  0  0  0
 12  4  1  0  0  0  0
 12 13  1  0  0  0  0
 14  1  1  0  0  0  0
 14 15  1  0  0  0  0
 16 22  1  0  0  0  0
 16 14  1  1  0  0  0
 17 16  1  0  0  0  0
 18 17  1  0  0  0  0
 18 19  1  0  0  0  0
 19 20  1  0  0  0  0
 20 21  1  0  0  0  0
 22 21  1  0  0  0  0
 22 23  1  1  0  0  0
 23 25  1  0  0  0  0
 23 24  1  0  0  0  0
 26 23  1  0  0  0  0
M  END
>  <MODEL>
5

>  <REMARK>
  Name = ZINC63213314
                            x       y       z     vdW  Elec       q    Type
                         _______ _______ _______ _____ _____    ______ ____

>  <TORSDO>
F 4

>  <minimizedAffinity>
-7.4961706620096065

$$$$
ZINC63213314
 OpenBabel10211213583D

 26 27  0  0  1  0  0  0  0  0999 V2000
   49.1860   55.8790   19.3660 S   0  0  0  0  0  0  0  0  0  0  0  0
   49.2090   56.3550   18.0270 O   0  0  0  0  0  0  0  0  0  0  0  0
   48.0500   56.0250   20.2080 O   0  0  0  0  0  0  0  0  0  0  0  0
   50.3080   57.4690   21.2520 C   0  0  0  0  0  0  0  0  0  0  0  0
   50.5320   56.6540   20.1980 C   0  0  0  0  0  0  0  0  0  0  0  0
   51.8630   56.4300   19.7710 C   0  0  0  0  0  0  0  0  0  0  0  0
   52.8780   57.0330   20.4230 N   0  0  0  0  0  0  0  0  0  0  0  0
   52.6260   57.8400   21.4700 C   0  0  0  0  0  0  0  0  0  0  0  0
   53.5510   58.3780   22.0480 O   0  0  0  0  0  0  0  0  0  0  0  0
   53.7920   56.8840   20.1370 H   0  0  0  0  0  0  0  0  0  0  0  0
   52.0900   55.6990   18.8250 O   0  0  0  0  0  0  0  0  0  0  0  0
   51.3660   58.0620   21.8860 N   0  0  0  0  0  0  0  0  0  0  0  0
   51.2050   58.6490   22.6420 H   0  0  0  0  0  0  0  0  0  0  0  0
   49.5200   54.2590   19.2980 N   0  0  0  0  0  0  0  0  0  0  0  0
   49.7510   53.7770   20.1080 H   0  0  0  0  0  0  0  0  0  0  0  0
   49.4650   53.5520   18.0170 C   0  0  2  0  0  0  0  0  0  0  0  0
   48.0060   53.1400   17.7390 C   0  0  0  0  0  0  0  0  0  0  0  0
   47.9010   52.0700   16.6860 C   0  0  0  0  0  0  0  0  0  0  0  0
   47.8540   50.6960   17.3860 C   0  0  0  0  0  0  0  0  0  0  0  0
   49.1750   50.2350   17.7910 C   0  0  0  0  0  0  0  0  0  0  0  0
   49.8400   51.1780   18.8120 C   0  0  0  0  0  0  0  0  0  0  0  0
   50.4240   52.3480   18.0710 C   0  0  2  0  0  0  0  0  0  0  0  0
   51.6660   52.7590   18.7400 N   0  0  0  0  0  0  0  0  0  0  0  0
   52.4170   52.7850   18.0670 H   0  0  0  0  0  0  0  0  0  0  0  0
   51.8900   52.0970   19.4680 H   0  0  0  0  0  0  0  0  0  0  0  0
   51.5430   53.6760   19.1440 H   0  0  0  0  0  0  0  0  0  0  0  0
  1  5  1  0  0  0  0
  1  3  2  0  0  0  0
  2  1  2  0  0  0  0
  4 12  1  0  0  0  0
  5  4  2  0  0  0  0
  6  5  1  0  0  0  0
  6  7  1  0  0  0  0
  7  8  1  0  0  0  0
  8 12  1  0  0  0  0
  8  9  2  0  0  0  0
 10  7  1  0  0  0  0
 11  6  2  0  0  0  0
 12 13  1  0  0  0  0
 14  1  1  0  0  0  0
 14 15  1  0  0  0  0
 16 22  1  0  0  0  0
 16 14  1  1  0  0  0
 17 16  1  0  0  0  0
 18 19  1  0  0  0  0
 18 17  1  0  0  0  0
 19 20  1  0  0  0  0
 20 21  1  0  0  0  0
 22 23  1  1  0  0  0
 22 21  1  0  0  0  0
 23 26  1  0  0  0  0
 23 25  1  0  0  0  0
 24 23  1  0  0  0  0
M  END
>  <MODEL>
6

>  <REMARK>
  Name = ZINC63213314
                            x       y       z     vdW  Elec       q    Type
                         _______ _______ _______ _____ _____    ______ ____

>  <TORSDO>
F 4

>  <minimizedAffinity>
-7.287163144505028

$$$$
ZINC63213314
 OpenBabel10211213583D

 26 27  0  0  1  0  0  0  0  0999 V2000
   49.2340   50.1310   16.3370 S   0  0  0  0  0  0  0  0  0  0  0  0
   48.9300   51.4880   16.0420 O   0  0  0  0  0  0  0  0  0  0  0  0
   49.7290   49.2310   15.3550 O   0  0  0  0  0  0  0  0  0  0  0  0
   46.6010   50.1080   16.9770 C   0  0  0  0  0  0  0  0  0  0  0  0
   47.7590   49.4130   16.9810 C   0  0  0  0  0  0  0  0  0  0  0  0
   47.7730   48.1000   17.5090 C   0  0  0  0  0  0  0  0  0  0  0  0
   46.6330   47.5710   17.9970 N   0  0  0  0  0  0  0  0  0  0  0  0
   45.4920   48.2860   17.9800 C   0  0  0  0  0  0  0  0  0  0  0  0
   44.4720   47.7950   18.4230 O   0  0  0  0  0  0  0  0  0  0  0  0
   46.6340   46.6710   18.3600 H   0  0  0  0  0  0  0  0  0  0  0  0
   48.8040   47.4540   17.5240 O   0  0  0  0  0  0  0  0  0  0  0  0
   45.4660   49.5350   17.4810 N   0  0  0  0  0  0  0  0  0  0  0  0
   44.6340   50.0340   17.4800 H   0  0  0  0  0  0  0  0  0  0  0  0
   50.3460   50.1510   17.5640 N   0  0  0  0  0  0  0  0  0  0  0  0
   51.2330   49.7850   17.4200 H   0  0  0  0  0  0  0  0  0  0  0  0
   49.9910   50.7200   18.8650 C   0  0  2  0  0  0  0  0  0  0  0  0
   50.3980   52.2060   18.8860 C   0  0  0  0  0  0  0  0  0  0  0  0
   50.4650   52.7650   20.2810 C   0  0  0  0  0  0  0  0  0  0  0  0
   51.9190   52.6550   20.7840 C   0  0  0  0  0  0  0  0  0  0  0  0
   52.2430   51.3160   21.2550 C   0  0  0  0  0  0  0  0  0  0  0  0
   52.1280   50.2570   20.1410 C   0  0  0  0  0  0  0  0  0  0  0  0
   50.6780   49.8980   19.9720 C   0  0  2  0  0  0  0  0  0  0  0  0
   50.5810   48.4720   19.6360 N   0  0  0  0  0  0  0  0  0  0  0  0
   51.4920   48.1270   19.3680 H   0  0  0  0  0  0  0  0  0  0  0  0
   49.9370   48.3510   18.8680 H   0  0  0  0  0  0  0  0  0  0  0  0
   50.2490   47.9590   20.4380 H   0  0  0  0  0  0  0  0  0  0  0  0
  1  5  1  0  0  0  0
  1 14  1  0  0  0  0
  2  1  2  0  0  0  0
  3  1  2  0  0  0  0
  4  5  2  0  0  0  0
  4 12  1  0  0  0  0
  5  6  1  0  0  0  0
  6 11  2  0  0  0  0
  6  7  1  0  0  0  0
  7 10  1  0  0  0  0
  8  7  1  0  0  0  0
  8  9  2  0  0  0  0
 12  8  1  0  0  0  0
 13 12  1  0  0  0  0
 15 14  1  0  0  0  0
 16 14  1  6  0  0  0
 16 17  1  0  0  0  0
 16 22  1  0  0  0  0
 17 18  1  0  0  0  0
 18 19  1  0  0  0  0
 19 20  1  0  0  0  0
 21 20  1  0  0  0  0
 22 23  1  6  0  0  0
 22 21  1  0  0  0  0
 23 26  1  0  0  0  0
 24 23  1  0  0  0  0
 25 23  1  0  0  0  0
M  END
>  <MODEL>
7

>  <REMARK>
  Name = ZINC63213314
                            x       y       z     vdW  Elec       q    Type
                         _______ _______ _______ _____ _____    ______ ____

>  <TORSDO>
F 4

>  <minimizedAffinity>
-7.1939607361014657

$$$$
ZINC63213314
 OpenBabel10211213583D

 26 27  0  0  1  0  0  0  0  0999 V2000
   51.0330   53.3380   21.3160 S   0  0  0  0  0  0  0  0  0  0  0  0
   52.1130   54.1600   21.7380 O   0  0  0  0  0  0  0  0  0  0  0  0
   50.3890   52.4190   22.1890 O   0  0  0  0  0  0  0  0  0  0  0  0
   51.3060   52.7700   18.6810 C   0  0  0  0  0  0  0  0  0  0  0  0
   51.6180   52.4030   19.9430 C   0  0  0  0  0  0  0  0  0  0  0  0
   52.4230   51.2560   20.1470 C   0  0  0  0  0  0  0  0  0  0  0  0
   52.8600   50.5560   19.0810 N   0  0  0  0  0  0  0  0  0  0  0  0
   52.5340   50.9450   17.8340 C   0  0  0  0  0  0  0  0  0  0  0  0
   52.9350   50.3030   16.8830 O   0  0  0  0  0  0  0  0  0  0  0  0
   53.4130   49.7700   19.2130 H   0  0  0  0  0  0  0  0  0  0  0  0
   52.7190   50.9060   21.2750 O   0  0  0  0  0  0  0  0  0  0  0  0
   51.7690   52.0320   17.6260 N   0  0  0  0  0  0  0  0  0  0  0  0
   51.5440   52.2950   16.7200 H   0  0  0  0  0  0  0  0  0  0  0  0
   49.8570   54.3570   20.7500 N   0  0  0  0  0  0  0  0  0  0  0  0
   48.9590   54.0230   20.5950 H   0  0  0  0  0  0  0  0  0  0  0  0
   50.1710   55.7620   20.4820 C   0  0  2  0  0  0  0  0  0  0  0  0
   50.2140   56.5250   21.8200 C   0  0  0  0  0  0  0  0  0  0  0  0
   50.1130   58.0150   21.6360 C   0  0  0  0  0  0  0  0  0  0  0  0
   48.6330   58.4270   21.7780 C   0  0  0  0  0  0  0  0  0  0  0  0
   47.8690   58.1780   20.5630 C   0  0  0  0  0  0  0  0  0  0  0  0
   47.8310   56.6830   20.1890 C   0  0  0  0  0  0  0  0  0  0  0  0
   49.1220   56.3290   19.5060 C   0  0  2  0  0  0  0  0  0  0  0  0
   48.8480   55.3270   18.4680 N   0  0  0  0  0  0  0  0  0  0  0  0
   49.6710   54.7610   18.3210 H   0  0  0  0  0  0  0  0  0  0  0  0
   48.6030   55.7930   17.6070 H   0  0  0  0  0  0  0  0  0  0  0  0
   48.0830   54.7380   18.7620 H   0  0  0  0  0  0  0  0  0  0  0  0
  1  2  2  0  0  0  0
  1  3  2  0  0  0  0
  4  5  2  0  0  0  0
  5  6  1  0  0  0  0
  5  1  1  0  0  0  0
  6 11  2  0  0  0  0
  7 10  1  0  0  0  0
  7  6  1  0  0  0  0
  8  7  1  0  0  0  0
  9  8  2  0  0  0  0
 12  8  1  0  0  0  0
 12  4  1  0  0  0  0
 13 12  1  0  0  0  0
 14  1  1  0  0  0  0
 15 14  1  0  0  0  0
 16 14  1  1  0  0  0
 16 17  1  0  0  0  0
 18 19  1  0  0  0  0
 18 17  1  0  0  0  0
 20 19  1  0  0  0  0
 21 20  1  0  0  0  0
 22 23  1  1  0  0  0
 22 21  1  0  0  0  0
 22 16  1  0  0  0  0
 23 26  1  0  0  0  0
 24 23  1  0  0  0  0
 25 23  1  0  0  0  0
M  END
>  <MODEL>
8

>  <REMARK>
  Name = ZINC63213314
                            x       y       z     vdW  Elec       q    Type
                         _______ _______ _______ _____ _____    ______ ____

>  <TORSDO>
F 4

>  <minimizedAffinity>
-6.9250734973347523

$$$$
ZINC63213314
 OpenBabel10211213583D

 26 27  0  0  1  0  0  0  0  0999 V2000
   51.9350   53.4250   19.3670 S   0  0  0  0  0  0  0  0  0  0  0  0
   53.1820   53.6540   18.7250 O   0  0  0  0  0  0  0  0  0  0  0  0
   51.8410   52.8770   20.6750 O   0  0  0  0  0  0  0  0  0  0  0  0
   49.7830   52.7230   17.8770 C   0  0  0  0  0  0  0  0  0  0  0  0
   51.0120   52.3620   18.3080 C   0  0  0  0  0  0  0  0  0  0  0  0
   51.5470   51.1180   17.8970 C   0  0  0  0  0  0  0  0  0  0  0  0
   50.8230   50.3210   17.0860 N   0  0  0  0  0  0  0  0  0  0  0  0
   49.6020   50.7060   16.6710 C   0  0  0  0  0  0  0  0  0  0  0  0
   48.9600   49.9760   15.9410 O   0  0  0  0  0  0  0  0  0  0  0  0
   51.1840   49.4670   16.7990 H   0  0  0  0  0  0  0  0  0  0  0  0
   52.6530   50.7710   18.2710 O   0  0  0  0  0  0  0  0  0  0  0  0
   49.0800   51.8850   17.0550 N   0  0  0  0  0  0  0  0  0  0  0  0
   48.1980   52.1440   16.7470 H   0  0  0  0  0  0  0  0  0  0  0  0
   51.1480   54.8820   19.4060 N   0  0  0  0  0  0  0  0  0  0  0  0
   51.4540   55.6130   18.8460 H   0  0  0  0  0  0  0  0  0  0  0  0
   49.9910   55.0660   20.2830 C   0  0  2  0  0  0  0  0  0  0  0  0
   48.8500   55.7110   19.4730 C   0  0  0  0  0  0  0  0  0  0  0  0
   47.7900   56.3160   20.3530 C   0  0  0  0  0  0  0  0  0  0  0  0
   48.1110   57.8130   20.5490 C   0  0  0  0  0  0  0  0  0  0  0  0
   49.1390   58.0310   21.5570 C   0  0  0  0  0  0  0  0  0  0  0  0
   50.4850   57.3840   21.1750 C   0  0  0  0  0  0  0  0  0  0  0  0
   50.4160   55.9170   21.4950 C   0  0  2  0  0  0  0  0  0  0  0  0
   51.7400   55.4700   21.9490 N   0  0  0  0  0  0  0  0  0  0  0  0
   51.7630   55.4610   22.9590 H   0  0  0  0  0  0  0  0  0  0  0  0
   52.4450   56.1030   21.6020 H   0  0  0  0  0  0  0  0  0  0  0  0
   51.9190   54.5410   21.6000 H   0  0  0  0  0  0  0  0  0  0  0  0
  1 14  1  0  0  0  0
  1  3  2  0  0  0  0
  2  1  2  0  0  0  0
  4  5  2  0  0  0  0
  5  1  1  0  0  0  0
  6 11  2  0  0  0  0
  6  5  1  0  0  0  0
  7  6  1  0  0  0  0
  8 12  1  0  0  0  0
  8  7  1  0  0  0  0
  9  8  2  0  0  0  0
 10  7  1  0  0  0  0
 12  4  1  0  0  0  0
 13 12  1  0  0  0  0
 15 14  1  0  0  0  0
 16 14  1  6  0  0  0
 16 22  1  0  0  0  0
 17 16  1  0  0  0  0
 17 18  1  0  0  0  0
 18 19  1  0  0  0  0
 19 20  1  0  0  0  0
 21 22  1  0  0  0  0
 21 20  1  0  0  0  0
 22 23  1  6  0  0  0
 23 24  1  0  0  0  0
 25 23  1  0  0  0  0
 26 23  1  0  0  0  0
M  END
>  <MODEL>
9

>  <REMARK>
  Name = ZINC63213314
                            x       y       z     vdW  Elec       q    Type
                         _______ _______ _______ _____ _____    ______ ____

>  <TORSDO>
F 4

>  <minimizedAffinity>
-6.8630150964999901

$$$$
ZINC49105029
 OpenBabel10211213593D

 22 22  0  0  1  0  0  0  0  0999 V2000
   51.2660   56.5860   21.6590 C   0  0  2  0  0  0  0  0  0  0  0  0
   52.2410   57.2170   20.7660 N   0  0  0  0  0  0  0  0  0  0  0  0
   52.0270   57.3530   19.8300 H   0  0  0  0  0  0  0  0  0  0  0  0
   53.4380   57.6110   21.2470 C   0  0  0  0  0  0  0  0  0  0  0  0
   54.3360   58.1920   20.4250 N   0  0  0  0  0  0  0  0  0  0  0  0
   55.1960   58.4740   20.7710 H   0  0  0  0  0  0  0  0  0  0  0  0
   54.1200   58.3270   19.4890 H   0  0  0  0  0  0  0  0  0  0  0  0
   53.7080   57.4420   22.4190 O   0  0  0  0  0  0  0  0  0  0  0  0
   51.6250   55.1340   21.8480 C   0  0  0  0  0  0  0  0  0  0  0  0
   51.6470   54.3020   20.7880 N   0  0  0  0  0  0  0  0  0  0  0  0
   51.4320   54.6370   19.9040 H   0  0  0  0  0  0  0  0  0  0  0  0
   51.8930   54.7150   22.9540 O   0  0  0  0  0  0  0  0  0  0  0  0
   51.9950   52.8910   20.9720 C   0  0  1  0  0  0  0  0  0  0  0  0
   50.7240   52.0880   21.2930 C   0  0  0  0  0  0  0  0  0  0  0  0
   51.0620   50.5750   21.1720 C   0  0  0  0  0  0  0  0  0  0  0  0
   52.1250   50.5870   19.6680 S   0  0  0  0  0  0  0  0  0  0  0  0
   53.2620   49.7660   19.8990 O   0  0  0  0  0  0  0  0  0  0  0  0
   51.3130   50.3500   18.5260 O   0  0  0  0  0  0  0  0  0  0  0  0
   52.6460   52.3490   19.6770 C   0  0  0  0  0  0  0  0  0  0  0  0
   49.8690   56.6900   21.0440 C   0  0  0  0  0  0  0  0  0  0  0  0
   47.7940   58.0760   20.9340 C   0  0  0  0  0  0  0  0  0  0  0  0
   49.1370   57.8920   21.6430 C   0  0  0  0  0  0  0  0  0  0  0  0
  1  2  1  6  0  0  0
  1  9  1  0  0  0  0
  2  4  1  0  0  0  0
  3  2  1  0  0  0  0
  4  8  2  0  0  0  0
  5  6  1  0  0  0  0
  5  4  1  0  0  0  0
  7  5  1  0  0  0  0
  9 12  2  0  0  0  0
 10  9  1  0  0  0  0
 11 10  1  0  0  0  0
 13 10  1  6  0  0  0
 13 14  1  0  0  0  0
 15 14  1  0  0  0  0
 16 19  1  0  0  0  0
 16 17  2  0  0  0  0
 16 15  1  0  0  0  0
 18 16  2  0  0  0  0
 19 13  1  0  0  0  0
 20 22  1  0  0  0  0
 20  1  1  0  0  0  0
 21 22  1  0  0  0  0
M  END
>  <MODEL>
1

>  <REMARK>
  Name = ZINC49105029
                            x       y       z     vdW  Elec       q    Type
                         _______ _______ _______ _____ _____    ______ ____

>  <TORSDO>
F 5

>  <minimizedAffinity>
-7.2033891033175355

$$$$
ZINC49105029
 OpenBabel10211213593D

 22 22  0  0  1  0  0  0  0  0999 V2000
   49.5840   50.8700   17.4280 C   0  0  2  0  0  0  0  0  0  0  0  0
   50.7290   50.5140   16.5880 N   0  0  0  0  0  0  0  0  0  0  0  0
   51.6310   50.5920   16.9370 H   0  0  0  0  0  0  0  0  0  0  0  0
   50.5300   50.0790   15.3280 C   0  0  0  0  0  0  0  0  0  0  0  0
   51.5850   49.7520   14.5530 N   0  0  0  0  0  0  0  0  0  0  0  0
   51.4410   49.4390   13.6470 H   0  0  0  0  0  0  0  0  0  0  0  0
   52.4860   49.8300   14.9030 H   0  0  0  0  0  0  0  0  0  0  0  0
   49.4010   49.9810   14.8890 O   0  0  0  0  0  0  0  0  0  0  0  0
   49.6510   52.3340   17.7760 C   0  0  0  0  0  0  0  0  0  0  0  0
   50.5080   52.7630   18.7250 N   0  0  0  0  0  0  0  0  0  0  0  0
   51.0810   52.1290   19.1830 H   0  0  0  0  0  0  0  0  0  0  0  0
   48.9340   53.1280   17.2040 O   0  0  0  0  0  0  0  0  0  0  0  0
   50.5730   54.1870   19.0640 C   0  0  1  0  0  0  0  0  0  0  0  0
   49.6190   54.4780   20.2330 C   0  0  0  0  0  0  0  0  0  0  0  0
   49.9350   55.9030   20.7730 C   0  0  0  0  0  0  0  0  0  0  0  0
   51.7760   55.8890   20.7010 S   0  0  0  0  0  0  0  0  0  0  0  0
   52.2250   57.1200   20.1530 O   0  0  0  0  0  0  0  0  0  0  0  0
   52.2840   55.4560   21.9550 O   0  0  0  0  0  0  0  0  0  0  0  0
   52.0230   54.5550   19.4620 C   0  0  0  0  0  0  0  0  0  0  0  0
   49.6150   50.0390   18.7130 C   0  0  0  0  0  0  0  0  0  0  0  0
   47.3380   49.1970   18.1220 C   0  0  0  0  0  0  0  0  0  0  0  0
   48.7540   48.7870   18.5310 C   0  0  0  0  0  0  0  0  0  0  0  0
  1  2  1  1  0  0  0
  1  9  1  0  0  0  0
  1 20  1  0  0  0  0
  2  3  1  0  0  0  0
  4  2  1  0  0  0  0
  5  7  1  0  0  0  0
  5  4  1  0  0  0  0
  6  5  1  0  0  0  0
  8  4  2  0  0  0  0
  9 10  1  0  0  0  0
 10 11  1  0  0  0  0
 12  9  2  0  0  0  0
 13 10  1  1  0  0  0
 13 19  1  0  0  0  0
 13 14  1  0  0  0  0
 14 15  1  0  0  0  0
 16 15  1  0  0  0  0
 16 18  2  0  0  0  0
 17 16  2  0  0  0  0
 19 16  1  0  0  0  0
 21 22  1  0  0  0  0
 22 20  1  0  0  0  0
M  END
>  <MODEL>
2

>  <REMARK>
  Name = ZINC49105029
                            x       y       z     vdW  Elec       q    Type
                         _______ _______ _______ _____ _____    ______ ____

>  <TORSDO>
F 5

>  <minimizedAffinity>
-6.9579215337841571

$$$$
ZINC49105029
 OpenBabel10211213593D

 22 22  0  0  1  0  0  0  0  0999 V2000
   51.3440   51.3320   17.9770 C   0  0  2  0  0  0  0  0  0  0  0  0
   52.1140   50.1430   18.3450 N   0  0  0  0  0  0  0  0  0  0  0  0
   52.4920   49.5750   17.6560 H   0  0  0  0  0  0  0  0  0  0  0  0
   52.2980   49.8360   19.6450 C   0  0  0  0  0  0  0  0  0  0  0  0
   53.0070   48.7400   19.9850 N   0  0  0  0  0  0  0  0  0  0  0  0
   53.1390   48.5190   20.9200 H   0  0  0  0  0  0  0  0  0  0  0  0
   53.3850   48.1730   19.2950 H   0  0  0  0  0  0  0  0  0  0  0  0
   51.8250   50.5460   20.5100 O   0  0  0  0  0  0  0  0  0  0  0  0
   52.0380   52.5630   18.5020 C   0  0  0  0  0  0  0  0  0  0  0  0
   51.4450   53.3190   19.4470 N   0  0  0  0  0  0  0  0  0  0  0  0
   50.5720   53.0720   19.7890 H   0  0  0  0  0  0  0  0  0  0  0  0
   53.1290   52.8730   18.0730 O   0  0  0  0  0  0  0  0  0  0  0  0
   52.1190   54.5160   19.9570 C   0  0  1  0  0  0  0  0  0  0  0  0
   51.5290   55.7630   19.2800 C   0  0  0  0  0  0  0  0  0  0  0  0
   52.0280   57.0170   20.0540 C   0  0  0  0  0  0  0  0  0  0  0  0
   51.8920   56.4170   21.7900 S   0  0  0  0  0  0  0  0  0  0  0  0
   53.0660   56.7870   22.5000 O   0  0  0  0  0  0  0  0  0  0  0  0
   50.6200   56.7810   22.3070 O   0  0  0  0  0  0  0  0  0  0  0  0
   51.9200   54.6040   21.4890 C   0  0  0  0  0  0  0  0  0  0  0  0
   49.9410   51.2410   18.5820 C   0  0  0  0  0  0  0  0  0  0  0  0
   48.6430   49.1140   18.7610 C   0  0  0  0  0  0  0  0  0  0  0  0
   49.1180   50.2110   17.8060 C   0  0  0  0  0  0  0  0  0  0  0  0
  1  2  1  1  0  0  0
  1  9  1  0  0  0  0
  1 20  1  0  0  0  0
  2  4  1  0  0  0  0
  3  2  1  0  0  0  0
  4  5  1  0  0  0  0
  4  8  2  0  0  0  0
  5  6  1  0  0  0  0
  7  5  1  0  0  0  0
  9 10  1  0  0  0  0
 10 11  1  0  0  0  0
 12  9  2  0  0  0  0
 13 10  1  1  0  0  0
 13 19  1  0  0  0  0
 14 13  1  0  0  0  0
 14 15  1  0  0  0  0
 15 16  1  0  0  0  0
 16 18  2  0  0  0  0
 16 17  2  0  0  0  0
 19 16  1  0  0  0  0
 22 20  1  0  0  0  0
 22 21  1  0  0  0  0
M  END
>  <MODEL>
3

>  <REMARK>
  Name = ZINC49105029
                            x       y       z     vdW  Elec       q    Type
                         _______ _______ _______ _____ _____    ______ ____

>  <TORSDO>
F 5

>  <minimizedAffinity>
-6.7018926391817812

$$$$
ZINC49105029
 OpenBabel10211213593D

 22 22  0  0  1  0  0  0  0  0999 V2000
   50.8220   56.4080   20.5330 C   0  0  2  0  0  0  0  0  0  0  0  0
   52.1200   56.9490   20.1230 N   0  0  0  0  0  0  0  0  0  0  0  0
   52.2680   57.2100   19.2010 H   0  0  0  0  0  0  0  0  0  0  0  0
   53.1090   57.0860   21.0290 C   0  0  0  0  0  0  0  0  0  0  0  0
   54.3040   57.5840   20.6520 N   0  0  0  0  0  0  0  0  0  0  0  0
   55.0150   57.6820   21.3030 H   0  0  0  0  0  0  0  0  0  0  0  0
   54.4520   57.8450   19.7290 H   0  0  0  0  0  0  0  0  0  0  0  0
   52.9250   56.7600   22.1850 O   0  0  0  0  0  0  0  0  0  0  0  0
   50.6100   55.0660   19.8820 C   0  0  0  0  0  0  0  0  0  0  0  0
   51.3920   54.0210   20.2200 N   0  0  0  0  0  0  0  0  0  0  0  0
   52.0920   54.1330   20.8810 H   0  0  0  0  0  0  0  0  0  0  0  0
   49.7360   54.9250   19.0530 O   0  0  0  0  0  0  0  0  0  0  0  0
   51.1860   52.7160   19.5860 C   0  0  1  0  0  0  0  0  0  0  0  0
   52.2390   52.5110   18.4850 C   0  0  0  0  0  0  0  0  0  0  0  0
   52.2000   51.0170   18.0500 C   0  0  0  0  0  0  0  0  0  0  0  0
   52.0000   50.1960   19.6870 S   0  0  0  0  0  0  0  0  0  0  0  0
   51.0110   49.1820   19.5760 O   0  0  0  0  0  0  0  0  0  0  0  0
   53.2840   49.8660   20.1990 O   0  0  0  0  0  0  0  0  0  0  0  0
   51.3140   51.6010   20.6520 C   0  0  0  0  0  0  0  0  0  0  0  0
   49.7100   57.3650   20.1020 C   0  0  0  0  0  0  0  0  0  0  0  0
   47.3560   57.9500   20.7030 C   0  0  0  0  0  0  0  0  0  0  0  0
   48.7270   57.5580   21.2590 C   0  0  0  0  0  0  0  0  0  0  0  0
  1  9  1  6  0  0  0
  2  1  1  0  0  0  0
  2  4  1  0  0  0  0
  3  2  1  0  0  0  0
  4  8  2  0  0  0  0
  5  4  1  0  0  0  0
  5  6  1  0  0  0  0
  7  5  1  0  0  0  0
  9 10  1  0  0  0  0
 10 11  1  0  0  0  0
 12  9  2  0  0  0  0
 13 10  1  1  0  0  0
 13 19  1  0  0  0  0
 14 13  1  0  0  0  0
 15 14  1  0  0  0  0
 15 16  1  0  0  0  0
 16 18  2  0  0  0  0
 16 19  1  0  0  0  0
 17 16  2  0  0  0  0
 20  1  1  0  0  0  0
 20 22  1  0  0  0  0
 21 22  1  0  0  0  0
M  END
>  <MODEL>
4

>  <REMARK>
  Name = ZINC49105029
                            x       y       z     vdW  Elec       q    Type
                         _______ _______ _______ _____ _____    ______ ____

>  <TORSDO>
F 5

>  <minimizedAffinity>
-6.6726753714972622

$$$$
ZINC49105029
 OpenBabel10211213593D

 22 22  0  0  1  0  0  0  0  0999 V2000
   50.2570   51.0220   18.6870 C   0  0  2  0  0  0  0  0  0  0  0  0
   51.5390   50.3190   18.7760 N   0  0  0  0  0  0  0  0  0  0  0  0
   52.1970   50.4160   18.0700 H   0  0  0  0  0  0  0  0  0  0  0  0
   51.8060   49.5370   19.8420 C   0  0  0  0  0  0  0  0  0  0  0  0
   52.9850   48.8900   19.9240 N   0  0  0  0  0  0  0  0  0  0  0  0
   53.1760   48.3270   20.6900 H   0  0  0  0  0  0  0  0  0  0  0  0
   53.6430   48.9870   19.2170 H   0  0  0  0  0  0  0  0  0  0  0  0
   50.9830   49.4160   20.7270 O   0  0  0  0  0  0  0  0  0  0  0  0
   49.3640   50.3130   17.7020 C   0  0  0  0  0  0  0  0  0  0  0  0
   48.2470   49.6920   18.1310 N   0  0  0  0  0  0  0  0  0  0  0  0
   48.0190   49.7010   19.0730 H   0  0  0  0  0  0  0  0  0  0  0  0
   49.6490   50.3010   16.5230 O   0  0  0  0  0  0  0  0  0  0  0  0
   47.3780   49.0020   17.1740 C   0  0  1  0  0  0  0  0  0  0  0  0
   47.6410   47.4890   17.2440 C   0  0  0  0  0  0  0  0  0  0  0  0
   46.5060   46.7640   16.4640 C   0  0  0  0  0  0  0  0  0  0  0  0
   45.0470   47.7540   16.9950 S   0  0  0  0  0  0  0  0  0  0  0  0
   44.2400   48.0320   15.8590 O   0  0  0  0  0  0  0  0  0  0  0  0
   44.4610   47.1400   18.1350 O   0  0  0  0  0  0  0  0  0  0  0  0
   45.8980   49.2960   17.5180 C   0  0  0  0  0  0  0  0  0  0  0  0
   50.4940   52.4590   18.2180 C   0  0  0  0  0  0  0  0  0  0  0  0
   50.4540   53.2860   20.5740 C   0  0  0  0  0  0  0  0  0  0  0  0
   49.8200   53.4300   19.1890 C   0  0  0  0  0  0  0  0  0  0  0  0
  1  9  1  6  0  0  0
  1  2  1  0  0  0  0
  2  4  1  0  0  0  0
  3  2  1  0  0  0  0
  4  5  1  0  0  0  0
  4  8  2  0  0  0  0
  5  6  1  0  0  0  0
  7  5  1  0  0  0  0
  9 10  1  0  0  0  0
 10 11  1  0  0  0  0
 12  9  2  0  0  0  0
 13 14  1  0  0  0  0
 13 19  1  0  0  0  0
 13 10  1  1  0  0  0
 15 16  1  0  0  0  0
 15 14  1  0  0  0  0
 16 19  1  0  0  0  0
 16 18  2  0  0  0  0
 17 16  2  0  0  0  0
 20  1  1  0  0  0  0
 20 22  1  0  0  0  0
 22 21  1  0  0  0  0
M  END
>  <MODEL>
5

>  <REMARK>
  Name = ZINC49105029
                            x       y       z     vdW  Elec       q    Type
                         _______ _______ _______ _____ _____    ______ ____

>  <TORSDO>
F 5

>  <minimizedAffinity>
-6.5982090416178298

$$$$
ZINC49105029
 OpenBabel10211213593D

 22 22  0  0  1  0  0  0  0  0999 V2000
   50.8560   56.1660   20.2700 C   0  0  2  0  0  0  0  0  0  0  0  0
   52.0560   57.0050   20.2140 N   0  0  0  0  0  0  0  0  0  0  0  0
   52.2590   57.5100   19.4120 H   0  0  0  0  0  0  0  0  0  0  0  0
   52.8780   57.0760   21.2810 C   0  0  0  0  0  0  0  0  0  0  0  0
   53.9830   57.8470   21.2300 N   0  0  0  0  0  0  0  0  0  0  0  0
   54.5740   57.8980   21.9960 H   0  0  0  0  0  0  0  0  0  0  0  0
   54.1850   58.3520   20.4260 H   0  0  0  0  0  0  0  0  0  0  0  0
   52.6250   56.4440   22.2870 O   0  0  0  0  0  0  0  0  0  0  0  0
   51.0250   54.9870   19.3470 C   0  0  0  0  0  0  0  0  0  0  0  0
   49.9980   54.1380   19.1450 N   0  0  0  0  0  0  0  0  0  0  0  0
   49.1510   54.2850   19.5930 H   0  0  0  0  0  0  0  0  0  0  0  0
   52.0850   54.8020   18.7870 O   0  0  0  0  0  0  0  0  0  0  0  0
   50.1620   52.9910   18.2480 C   0  0  1  0  0  0  0  0  0  0  0  0
   50.3000   51.7060   19.0810 C   0  0  0  0  0  0  0  0  0  0  0  0
   50.1560   50.4890   18.1220 C   0  0  0  0  0  0  0  0  0  0  0  0
   48.7870   51.0750   17.0380 S   0  0  0  0  0  0  0  0  0  0  0  0
   49.1140   50.7870   15.6860 O   0  0  0  0  0  0  0  0  0  0  0  0
   47.5500   50.6210   17.5700 O   0  0  0  0  0  0  0  0  0  0  0  0
   48.9300   52.8860   17.3180 C   0  0  0  0  0  0  0  0  0  0  0  0
   49.6400   56.9850   19.8340 C   0  0  0  0  0  0  0  0  0  0  0  0
   49.0810   58.1890   21.9510 C   0  0  0  0  0  0  0  0  0  0  0  0
   48.6460   57.0770   20.9940 C   0  0  0  0  0  0  0  0  0  0  0  0
  1  9  1  6  0  0  0
  2  1  1  0  0  0  0
  2  4  1  0  0  0  0
  3  2  1  0  0  0  0
  4  8  2  0  0  0  0
  5  4  1  0  0  0  0
  5  6  1  0  0  0  0
  7  5  1  0  0  0  0
 10  9  1  0  0  0  0
 10 11  1  0  0  0  0
 12  9  2  0  0  0  0
 13 14  1  0  0  0  0
 13 10  1  1  0  0  0
 15 14  1  0  0  0  0
 16 19  1  0  0  0  0
 16 18  2  0  0  0  0
 16 15  1  0  0  0  0
 17 16  2  0  0  0  0
 19 13  1  0  0  0  0
 20  1  1  0  0  0  0
 20 22  1  0  0  0  0
 22 21  1  0  0  0  0
M  END
>  <MODEL>
6

>  <REMARK>
  Name = ZINC49105029
                            x       y       z     vdW  Elec       q    Type
                         _______ _______ _______ _____ _____    ______ ____

>  <TORSDO>
F 5

>  <minimizedAffinity>
-6.5487548180927684

$$$$
ZINC49105029
 OpenBabel10211213593D

 22 22  0  0  1  0  0  0  0  0999 V2000
   50.7920   51.8450   18.3810 C   0  0  2  0  0  0  0  0  0  0  0  0
   50.8650   50.6560   19.2330 N   0  0  0  0  0  0  0  0  0  0  0  0
   50.0820   50.3610   19.7230 H   0  0  0  0  0  0  0  0  0  0  0  0
   52.0210   49.9690   19.3340 C   0  0  0  0  0  0  0  0  0  0  0  0
   52.0880   48.8740   20.1170 N   0  0  0  0  0  0  0  0  0  0  0  0
   52.9190   48.3810   20.1900 H   0  0  0  0  0  0  0  0  0  0  0  0
   51.3040   48.5800   20.6080 H   0  0  0  0  0  0  0  0  0  0  0  0
   53.0020   50.3370   18.7190 O   0  0  0  0  0  0  0  0  0  0  0  0
   50.5260   53.0580   19.2350 C   0  0  0  0  0  0  0  0  0  0  0  0
   51.5560   53.7890   19.7070 N   0  0  0  0  0  0  0  0  0  0  0  0
   52.4670   53.5350   19.4970 H   0  0  0  0  0  0  0  0  0  0  0  0
   49.3860   53.3760   19.4990 O   0  0  0  0  0  0  0  0  0  0  0  0
   51.2970   54.9680   20.5380 C   0  0  1  0  0  0  0  0  0  0  0  0
   51.6210   54.6410   22.0040 C   0  0  0  0  0  0  0  0  0  0  0  0
   51.6430   55.9750   22.8050 C   0  0  0  0  0  0  0  0  0  0  0  0
   52.5020   57.0750   21.6030 S   0  0  0  0  0  0  0  0  0  0  0  0
   51.8190   58.3200   21.5470 O   0  0  0  0  0  0  0  0  0  0  0  0
   53.8970   57.0550   21.8740 O   0  0  0  0  0  0  0  0  0  0  0  0
   52.1810   56.1430   20.0530 C   0  0  0  0  0  0  0  0  0  0  0  0
   49.6600   51.6790   17.3650 C   0  0  0  0  0  0  0  0  0  0  0  0
   47.3490   50.7330   17.3140 C   0  0  0  0  0  0  0  0  0  0  0  0
   48.7910   50.4850   17.7630 C   0  0  0  0  0  0  0  0  0  0  0  0
  1 20  1  1  0  0  0
  1  2  1  0  0  0  0
  1  9  1  0  0  0  0
  2  4  1  0  0  0  0
  2  3  1  0  0  0  0
  4  5  1  0  0  0  0
  5  6  1  0  0  0  0
  5  7  1  0  0  0  0
  8  4  2  0  0  0  0
  9 12  2  0  0  0  0
  9 10  1  0  0  0  0
 11 10  1  0  0  0  0
 13 10  1  1  0  0  0
 13 14  1  0  0  0  0
 14 15  1  0  0  0  0
 16 18  2  0  0  0  0
 16 15  1  0  0  0  0
 17 16  2  0  0  0  0
 19 13  1  0  0  0  0
 19 16  1  0  0  0  0
 20 22  1  0  0  0  0
 21 22  1  0  0  0  0
M  END
>  <MODEL>
7

>  <REMARK>
  Name = ZINC49105029
                            x       y       z     vdW  Elec       q    Type
                         _______ _______ _______ _____ _____    ______ ____

>  <TORSDO>
F 5

>  <minimizedAffinity>
-6.5051183307273854

$$$$
ZINC49105029
 OpenBabel10211213593D

 22 22  0  0  1  0  0  0  0  0999 V2000
   49.5830   50.4260   15.9950 C   0  0  2  0  0  0  0  0  0  0  0  0
   51.0230   50.1660   15.9390 N   0  0  0  0  0  0  0  0  0  0  0  0
   51.5510   50.1750   16.7530 H   0  0  0  0  0  0  0  0  0  0  0  0
   51.6170   49.9130   14.7550 C   0  0  0  0  0  0  0  0  0  0  0  0
   52.9430   49.6730   14.7030 N   0  0  0  0  0  0  0  0  0  0  0  0
   53.3690   49.4920   13.8520 H   0  0  0  0  0  0  0  0  0  0  0  0
   53.4690   49.6830   15.5180 H   0  0  0  0  0  0  0  0  0  0  0  0
   50.9570   49.9010   13.7350 O   0  0  0  0  0  0  0  0  0  0  0  0
   49.2730   51.2800   17.1970 C   0  0  0  0  0  0  0  0  0  0  0  0
   50.2620   51.9510   17.8200 N   0  0  0  0  0  0  0  0  0  0  0  0
   51.1730   51.8840   17.4950 H   0  0  0  0  0  0  0  0  0  0  0  0
   48.1340   51.3630   17.6050 O   0  0  0  0  0  0  0  0  0  0  0  0
   49.9610   52.7810   18.9890 C   0  0  1  0  0  0  0  0  0  0  0  0
   50.6970   52.2200   20.2170 C   0  0  0  0  0  0  0  0  0  0  0  0
   50.6190   53.2790   21.3540 C   0  0  0  0  0  0  0  0  0  0  0  0
   50.8960   54.8260   20.3930 S   0  0  0  0  0  0  0  0  0  0  0  0
   49.9630   55.8090   20.8210 O   0  0  0  0  0  0  0  0  0  0  0  0
   52.2830   55.1320   20.3980 O   0  0  0  0  0  0  0  0  0  0  0  0
   50.4190   54.2350   18.7200 C   0  0  0  0  0  0  0  0  0  0  0  0
   48.8280   49.1000   16.1040 C   0  0  0  0  0  0  0  0  0  0  0  0
   46.4370   48.6570   15.5280 C   0  0  0  0  0  0  0  0  0  0  0  0
   47.8180   48.9930   14.9590 C   0  0  0  0  0  0  0  0  0  0  0  0
  1  2  1  1  0  0  0
  1 20  1  0  0  0  0
  1  9  1  0  0  0  0
  2  3  1  0  0  0  0
  4  2  1  0  0  0  0
  5  4  1  0  0  0  0
  5  7  1  0  0  0  0
  6  5  1  0  0  0  0
  8  4  2  0  0  0  0
  9 12  2  0  0  0  0
  9 10  1  0  0  0  0
 11 10  1  0  0  0  0
 13 10  1  6  0  0  0
 13 14  1  0  0  0  0
 14 15  1  0  0  0  0
 16 18  2  0  0  0  0
 16 17  2  0  0  0  0
 16 15  1  0  0  0  0
 19 13  1  0  0  0  0
 19 16  1  0  0  0  0
 22 21  1  0  0  0  0
 22 20  1  0  0  0  0
M  END
>  <MODEL>
8

>  <REMARK>
  Name = ZINC49105029
                            x       y       z     vdW  Elec       q    Type
                         _______ _______ _______ _____ _____    ______ ____

>  <TORSDO>
F 5

>  <minimizedAffinity>
-6.445108305942763

$$$$
ZINC49105029
 OpenBabel10211213593D

 22 22  0  0  1  0  0  0  0  0999 V2000
   48.5320   49.6900   17.8820 C   0  0  2  0  0  0  0  0  0  0  0  0
   49.1880   48.8770   16.8560 N   0  0  0  0  0  0  0  0  0  0  0  0
   49.3220   47.9270   17.0000 H   0  0  0  0  0  0  0  0  0  0  0  0
   49.6070   49.4500   15.7090 C   0  0  0  0  0  0  0  0  0  0  0  0
   50.2120   48.7020   14.7640 N   0  0  0  0  0  0  0  0  0  0  0  0
   50.5130   49.1140   13.9400 H   0  0  0  0  0  0  0  0  0  0  0  0
   50.3450   47.7520   14.9090 H   0  0  0  0  0  0  0  0  0  0  0  0
   49.4400   50.6390   15.5280 O   0  0  0  0  0  0  0  0  0  0  0  0
   49.5760   50.3860   18.7160 C   0  0  0  0  0  0  0  0  0  0  0  0
   49.8810   51.6760   18.4740 N   0  0  0  0  0  0  0  0  0  0  0  0
   49.4290   52.1570   17.7640 H   0  0  0  0  0  0  0  0  0  0  0  0
   50.1430   49.7850   19.6040 O   0  0  0  0  0  0  0  0  0  0  0  0
   50.8970   52.3530   19.2840 C   0  0  1  0  0  0  0  0  0  0  0  0
   52.1900   52.4990   18.4650 C   0  0  0  0  0  0  0  0  0  0  0  0
   53.1310   53.4840   19.2170 C   0  0  0  0  0  0  0  0  0  0  0  0
   51.9170   54.7500   19.7770 S   0  0  0  0  0  0  0  0  0  0  0  0
   52.1870   55.0810   21.1320 O   0  0  0  0  0  0  0  0  0  0  0  0
   51.8450   55.7840   18.8060 O   0  0  0  0  0  0  0  0  0  0  0  0
   50.3760   53.7500   19.7000 C   0  0  0  0  0  0  0  0  0  0  0  0
   47.6800   48.7890   18.7800 C   0  0  0  0  0  0  0  0  0  0  0  0
   45.6390   49.4220   17.4860 C   0  0  0  0  0  0  0  0  0  0  0  0
   46.4910   48.2510   17.9810 C   0  0  0  0  0  0  0  0  0  0  0  0
  1  2  1  1  0  0  0
  1  9  1  0  0  0  0
  1 20  1  0  0  0  0
  2  3  1  0  0  0  0
  4  2  1  0  0  0  0
  5  7  1  0  0  0  0
  5  4  1  0  0  0  0
  6  5  1  0  0  0  0
  8  4  2  0  0  0  0
  9 12  2  0  0  0  0
 10  9  1  0  0  0  0
 11 10  1  0  0  0  0
 13 10  1  6  0  0  0
 13 19  1  0  0  0  0
 14 15  1  0  0  0  0
 14 13  1  0  0  0  0
 15 16  1  0  0  0  0
 16 17  2  0  0  0  0
 18 16  2  0  0  0  0
 19 16  1  0  0  0  0
 21 22  1  0  0  0  0
 22 20  1  0  0  0  0
M  END
>  <MODEL>
9

>  <REMARK>
  Name = ZINC49105029
                            x       y       z     vdW  Elec       q    Type
                         _______ _______ _______ _____ _____    ______ ____

>  <TORSDO>
F 5

>  <minimizedAffinity>
-6.4403233235312589

$$$$
ZINC36828606
 OpenBabel10211214003D

 19 19  0  0  0  0  0  0  0  0999 V2000
   51.4700   52.3660   20.0570 N   0  0  0  0  0  0  0  0  0  0  0  0
   51.3500   53.5320   19.1700 C   0  0  0  0  0  0  0  0  0  0  0  0
   51.9580   54.7500   19.8710 C   0  0  0  0  0  0  0  0  0  0  0  0
   51.2960   54.9290   21.2390 C   0  0  0  0  0  0  0  0  0  0  0  0
   51.5610   53.6940   22.1030 C   0  0  0  0  0  0  0  0  0  0  0  0
   50.9430   52.4610   21.4250 C   0  0  0  0  0  0  0  0  0  0  0  0
   50.8300   49.7650   19.4250 C   0  0  0  0  0  0  0  0  0  0  0  0
   52.1830   50.9700   19.5230 S   0  0  0  0  0  0  0  0  0  0  0  0
   52.6570   51.2800   18.2190 O   0  0  0  0  0  0  0  0  0  0  0  0
   53.0880   50.6070   20.5560 O   0  0  0  0  0  0  0  0  0  0  0  0
   51.8540   56.1160   21.9010 N   0  0  0  0  0  0  0  0  0  0  0  0
   52.3120   55.8400   22.7560 H   0  0  0  0  0  0  0  0  0  0  0  0
   51.1100   56.7650   22.1130 H   0  0  0  0  0  0  0  0  0  0  0  0
   52.8270   56.7630   21.0110 C   0  0  0  0  0  0  0  0  0  0  0  0
   53.5410   57.8590   21.7580 C   0  0  0  0  0  0  0  0  0  0  0  0
   52.8470   58.9090   22.2400 N   0  0  0  0  0  0  0  0  0  0  0  0
   53.3060   59.6150   22.7200 H   0  0  0  0  0  0  0  0  0  0  0  0
   51.8870   58.9600   22.1040 H   0  0  0  0  0  0  0  0  0  0  0  0
   54.7400   57.7960   21.9270 O   0  0  0  0  0  0  0  0  0  0  0  0
  1  6  1  0  0  0  0
  2  3  1  0  0  0  0
  2  1  1  0  0  0  0
  3  4  1  0  0  0  0
  4 11  1  0  0  0  0
  4  5  1  0  0  0  0
  6  5  1  0  0  0  0
  7  8  1  0  0  0  0
  8  1  1  0  0  0  0
  8 10  2  0  0  0  0
  9  8  2  0  0  0  0
 11 13  1  0  0  0  0
 11 12  1  0  0  0  0
 14 15  1  0  0  0  0
 14 11  1  0  0  0  0
 15 19  2  0  0  0  0
 15 16  1  0  0  0  0
 16 17  1  0  0  0  0
 18 16  1  0  0  0  0
M  END
>  <MODEL>
1

>  <REMARK>
  Name = ZINC36828606
                            x       y       z     vdW  Elec       q    Type
                         _______ _______ _______ _____ _____    ______ ____

>  <TORSDO>
F 4

>  <minimizedAffinity>
-6.2493254271040817

$$$$
ZINC36828606
 OpenBabel10211214003D

 19 19  0  0  0  0  0  0  0  0999 V2000
   50.9150   55.2550   20.9730 N   0  0  0  0  0  0  0  0  0  0  0  0
   51.3840   54.7490   22.2710 C   0  0  0  0  0  0  0  0  0  0  0  0
   51.8170   53.2900   22.1050 C   0  0  0  0  0  0  0  0  0  0  0  0
   50.6650   52.4870   21.4960 C   0  0  0  0  0  0  0  0  0  0  0  0
   50.3220   53.0490   20.1140 C   0  0  0  0  0  0  0  0  0  0  0  0
   49.8690   54.5090   20.2610 C   0  0  0  0  0  0  0  0  0  0  0  0
   52.7950   57.1870   21.5320 C   0  0  0  0  0  0  0  0  0  0  0  0
   51.5510   56.6420   20.3290 S   0  0  0  0  0  0  0  0  0  0  0  0
   52.1820   56.2270   19.1250 O   0  0  0  0  0  0  0  0  0  0  0  0
   50.4650   57.5580   20.2990 O   0  0  0  0  0  0  0  0  0  0  0  0
   51.0650   51.0790   21.3650 N   0  0  0  0  0  0  0  0  0  0  0  0
   50.4780   50.6250   20.6810 H   0  0  0  0  0  0  0  0  0  0  0  0
   50.9620   50.6160   22.2560 H   0  0  0  0  0  0  0  0  0  0  0  0
   52.4670   51.0050   20.9340 C   0  0  0  0  0  0  0  0  0  0  0  0
   52.5760   50.1070   19.7300 C   0  0  0  0  0  0  0  0  0  0  0  0
   52.5830   48.7680   19.8860 N   0  0  0  0  0  0  0  0  0  0  0  0
   52.6540   48.1890   19.1110 H   0  0  0  0  0  0  0  0  0  0  0  0
   52.5200   48.3820   20.7740 H   0  0  0  0  0  0  0  0  0  0  0  0
   52.6550   50.5880   18.6200 O   0  0  0  0  0  0  0  0  0  0  0  0
  1  2  1  0  0  0  0
  3  2  1  0  0  0  0
  4  3  1  0  0  0  0
  5  6  1  0  0  0  0
  5  4  1  0  0  0  0
  6  1  1  0  0  0  0
  8  1  1  0  0  0  0
  8  7  1  0  0  0  0
  9  8  2  0  0  0  0
 10  8  2  0  0  0  0
 11  4  1  0  0  0  0
 11 13  1  0  0  0  0
 12 11  1  0  0  0  0
 14 11  1  0  0  0  0
 15 16  1  0  0  0  0
 15 14  1  0  0  0  0
 16 18  1  0  0  0  0
 17 16  1  0  0  0  0
 19 15  2  0  0  0  0
M  END
>  <MODEL>
2

>  <REMARK>
  Name = ZINC36828606
                            x       y       z     vdW  Elec       q    Type
                         _______ _______ _______ _____ _____    ______ ____

>  <TORSDO>
F 4

>  <minimizedAffinity>
-6.2197461966447571

$$$$
ZINC36828606
 OpenBabel10211214003D

 19 19  0  0  0  0  0  0  0  0999 V2000
   51.3720   55.1150   20.4800 N   0  0  0  0  0  0  0  0  0  0  0  0
   50.0950   54.3880   20.4590 C   0  0  0  0  0  0  0  0  0  0  0  0
   50.3660   52.9270   20.0870 C   0  0  0  0  0  0  0  0  0  0  0  0
   51.1400   52.8760   18.7680 C   0  0  0  0  0  0  0  0  0  0  0  0
   52.4840   53.5880   18.9350 C   0  0  0  0  0  0  0  0  0  0  0  0
   52.2350   55.0620   19.2920 C   0  0  0  0  0  0  0  0  0  0  0  0
   50.5070   57.2080   22.0450 C   0  0  0  0  0  0  0  0  0  0  0  0
   51.8260   55.9840   21.8150 S   0  0  0  0  0  0  0  0  0  0  0  0
   51.8120   55.0440   22.8810 O   0  0  0  0  0  0  0  0  0  0  0  0
   53.0320   56.6290   21.4340 O   0  0  0  0  0  0  0  0  0  0  0  0
   51.3730   51.4760   18.3910 N   0  0  0  0  0  0  0  0  0  0  0  0
   52.3380   51.3550   18.1230 H   0  0  0  0  0  0  0  0  0  0  0  0
   50.7760   51.2320   17.6150 H   0  0  0  0  0  0  0  0  0  0  0  0
   51.0700   50.6030   19.5330 C   0  0  0  0  0  0  0  0  0  0  0  0
   52.3510   50.0410   20.0910 C   0  0  0  0  0  0  0  0  0  0  0  0
   52.6990   48.7660   19.8280 N   0  0  0  0  0  0  0  0  0  0  0  0
   53.5240   48.4040   20.1870 H   0  0  0  0  0  0  0  0  0  0  0  0
   52.1240   48.2090   19.2800 H   0  0  0  0  0  0  0  0  0  0  0  0
   53.0710   50.7370   20.7750 O   0  0  0  0  0  0  0  0  0  0  0  0
  1  8  1  0  0  0  0
  2  1  1  0  0  0  0
  3  2  1  0  0  0  0
  4  5  1  0  0  0  0
  4  3  1  0  0  0  0
  5  6  1  0  0  0  0
  6  1  1  0  0  0  0
  8  7  1  0  0  0  0
  8  9  2  0  0  0  0
 10  8  2  0  0  0  0
 11  4  1  0  0  0  0
 11 14  1  0  0  0  0
 12 11  1  0  0  0  0
 13 11  1  0  0  0  0
 14 15  1  0  0  0  0
 15 19  2  0  0  0  0
 16 15  1  0  0  0  0
 16 17  1  0  0  0  0
 18 16  1  0  0  0  0
M  END
>  <MODEL>
3

>  <REMARK>
  Name = ZINC36828606
                            x       y       z     vdW  Elec       q    Type
                         _______ _______ _______ _____ _____    ______ ____

>  <TORSDO>
F 4

>  <minimizedAffinity>
-6.1298888725804037

$$$$
ZINC36828606
 OpenBabel10211214003D

 19 19  0  0  0  0  0  0  0  0999 V2000
   46.5060   48.4520   16.3130 N   0  0  0  0  0  0  0  0  0  0  0  0
   47.7840   48.1230   15.6660 C   0  0  0  0  0  0  0  0  0  0  0  0
   48.7750   47.6610   16.7380 C   0  0  0  0  0  0  0  0  0  0  0  0
   48.8780   48.7320   17.8270 C   0  0  0  0  0  0  0  0  0  0  0  0
   47.5110   48.9270   18.4860 C   0  0  0  0  0  0  0  0  0  0  0  0
   46.5050   49.4070   17.4290 C   0  0  0  0  0  0  0  0  0  0  0  0
   45.4540   45.9880   15.6820 C   0  0  0  0  0  0  0  0  0  0  0  0
   45.0940   47.7630   15.7890 S   0  0  0  0  0  0  0  0  0  0  0  0
   44.1610   48.0120   16.8310 O   0  0  0  0  0  0  0  0  0  0  0  0
   44.8890   48.3000   14.4900 O   0  0  0  0  0  0  0  0  0  0  0  0
   49.8530   48.3070   18.8410 N   0  0  0  0  0  0  0  0  0  0  0  0
   50.6740   47.9390   18.3850 H   0  0  0  0  0  0  0  0  0  0  0  0
   49.4430   47.5910   19.4230 H   0  0  0  0  0  0  0  0  0  0  0  0
   50.2290   49.4580   19.6730 C   0  0  0  0  0  0  0  0  0  0  0  0
   51.7030   49.7270   19.5210 C   0  0  0  0  0  0  0  0  0  0  0  0
   52.6030   48.8340   19.9810 N   0  0  0  0  0  0  0  0  0  0  0  0
   53.5520   49.0080   19.8840 H   0  0  0  0  0  0  0  0  0  0  0  0
   52.3010   48.0180   20.4100 H   0  0  0  0  0  0  0  0  0  0  0  0
   52.0810   50.7470   18.9840 O   0  0  0  0  0  0  0  0  0  0  0  0
  1  6  1  0  0  0  0
  2  1  1  0  0  0  0
  2  3  1  0  0  0  0
  3  4  1  0  0  0  0
  4  5  1  0  0  0  0
  4 11  1  0  0  0  0
  6  5  1  0  0  0  0
  7  8  1  0  0  0  0
  8  1  1  0  0  0  0
  8  9  2  0  0  0  0
 10  8  2  0  0  0  0
 11 13  1  0  0  0  0
 11 14  1  0  0  0  0
 12 11  1  0  0  0  0
 15 14  1  0  0  0  0
 15 16  1  0  0  0  0
 16 18  1  0  0  0  0
 17 16  1  0  0  0  0
 19 15  2  0  0  0  0
M  END
>  <MODEL>
4

>  <REMARK>
  Name = ZINC36828606
                            x       y       z     vdW  Elec       q    Type
                         _______ _______ _______ _____ _____    ______ ____

>  <TORSDO>
F 4

>  <minimizedAffinity>
-6.0453224926687632

$$$$
ZINC36828606
 OpenBabel10211214003D

 19 19  0  0  0  0  0  0  0  0999 V2000
   46.7740   48.8820   17.1130 N   0  0  0  0  0  0  0  0  0  0  0  0
   47.3780   50.0050   16.3820 C   0  0  0  0  0  0  0  0  0  0  0  0
   48.8940   49.9770   16.5990 C   0  0  0  0  0  0  0  0  0  0  0  0
   49.1890   49.9720   18.1010 C   0  0  0  0  0  0  0  0  0  0  0  0
   48.5870   48.7170   18.7380 C   0  0  0  0  0  0  0  0  0  0  0  0
   47.0630   48.7340   18.5460 C   0  0  0  0  0  0  0  0  0  0  0  0
   46.1130   48.0590   14.5700 C   0  0  0  0  0  0  0  0  0  0  0  0
   45.7820   47.8070   16.3360 S   0  0  0  0  0  0  0  0  0  0  0  0
   46.2450   46.5270   16.7430 O   0  0  0  0  0  0  0  0  0  0  0  0
   44.4650   48.2360   16.6530 O   0  0  0  0  0  0  0  0  0  0  0  0
   50.6430   49.9780   18.3140 N   0  0  0  0  0  0  0  0  0  0  0  0
   51.0870   50.5210   17.5890 H   0  0  0  0  0  0  0  0  0  0  0  0
   50.9920   49.0310   18.2850 H   0  0  0  0  0  0  0  0  0  0  0  0
   50.9440   50.5710   19.6230 C   0  0  0  0  0  0  0  0  0  0  0  0
   52.2880   50.0840   20.0980 C   0  0  0  0  0  0  0  0  0  0  0  0
   52.6470   48.7990   19.9040 N   0  0  0  0  0  0  0  0  0  0  0  0
   53.5120   48.4850   20.2100 H   0  0  0  0  0  0  0  0  0  0  0  0
   52.0390   48.1870   19.4580 H   0  0  0  0  0  0  0  0  0  0  0  0
   53.0480   50.8470   20.6560 O   0  0  0  0  0  0  0  0  0  0  0  0
  1  6  1  0  0  0  0
  2  3  1  0  0  0  0
  2  1  1  0  0  0  0
  3  4  1  0  0  0  0
  4 11  1  0  0  0  0
  4  5  1  0  0  0  0
  6  5  1  0  0  0  0
  7  8  1  0  0  0  0
  8 10  2  0  0  0  0
  8  9  2  0  0  0  0
  8  1  1  0  0  0  0
 11 14  1  0  0  0  0
 12 11  1  0  0  0  0
 13 11  1  0  0  0  0
 14 15  1  0  0  0  0
 15 19  2  0  0  0  0
 16 15  1  0  0  0  0
 16 17  1  0  0  0  0
 18 16  1  0  0  0  0
M  END
>  <MODEL>
5

>  <REMARK>
  Name = ZINC36828606
                            x       y       z     vdW  Elec       q    Type
                         _______ _______ _______ _____ _____    ______ ____

>  <TORSDO>
F 4

>  <minimizedAffinity>
-6.0409422249810794

$$$$
ZINC36828606
 OpenBabel10211214003D

 19 19  0  0  0  0  0  0  0  0999 V2000
   52.0150   54.5690   20.9750 N   0  0  0  0  0  0  0  0  0  0  0  0
   52.3410   54.2780   19.5720 C   0  0  0  0  0  0  0  0  0  0  0  0
   51.2580   53.3630   18.9930 C   0  0  0  0  0  0  0  0  0  0  0  0
   51.1180   52.1230   19.8770 C   0  0  0  0  0  0  0  0  0  0  0  0
   50.6920   52.5420   21.2860 C   0  0  0  0  0  0  0  0  0  0  0  0
   51.7750   53.4470   21.8920 C   0  0  0  0  0  0  0  0  0  0  0  0
   53.0780   57.0560   20.4600 C   0  0  0  0  0  0  0  0  0  0  0  0
   51.9230   56.1340   21.5120 S   0  0  0  0  0  0  0  0  0  0  0  0
   50.5870   56.5330   21.2400 O   0  0  0  0  0  0  0  0  0  0  0  0
   52.4080   56.0870   22.8460 O   0  0  0  0  0  0  0  0  0  0  0  0
   50.1020   51.2270   19.3070 N   0  0  0  0  0  0  0  0  0  0  0  0
   49.6360   51.6910   18.5420 H   0  0  0  0  0  0  0  0  0  0  0  0
   49.4270   50.9880   20.0170 H   0  0  0  0  0  0  0  0  0  0  0  0
   50.7480   50.0030   18.8150 C   0  0  0  0  0  0  0  0  0  0  0  0
   51.2230   49.1800   19.9830 C   0  0  0  0  0  0  0  0  0  0  0  0
   52.5040   48.7640   20.0390 N   0  0  0  0  0  0  0  0  0  0  0  0
   52.8100   48.2350   20.7910 H   0  0  0  0  0  0  0  0  0  0  0  0
   53.1210   48.9940   19.3260 H   0  0  0  0  0  0  0  0  0  0  0  0
   50.4530   48.8930   20.8750 O   0  0  0  0  0  0  0  0  0  0  0  0
  1  8  1  0  0  0  0
  1  6  1  0  0  0  0
  2  1  1  0  0  0  0
  3  2  1  0  0  0  0
  3  4  1  0  0  0  0
  4  5  1  0  0  0  0
  5  6  1  0  0  0  0
  7  8  1  0  0  0  0
  8 10  2  0  0  0  0
  9  8  2  0  0  0  0
 11  4  1  0  0  0  0
 11 13  1  0  0  0  0
 12 11  1  0  0  0  0
 14 11  1  0  0  0  0
 14 15  1  0  0  0  0
 15 16  1  0  0  0  0
 15 19  2  0  0  0  0
 16 17  1  0  0  0  0
 18 16  1  0  0  0  0
M  END
>  <MODEL>
6

>  <REMARK>
  Name = ZINC36828606
                            x       y       z     vdW  Elec       q    Type
                         _______ _______ _______ _____ _____    ______ ____

>  <TORSDO>
F 4

>  <minimizedAffinity>
-5.9267622276317704

$$$$
ZINC36828606
 OpenBabel10211214003D

 19 19  0  0  0  0  0  0  0  0999 V2000
   52.3610   52.0080   19.8020 N   0  0  0  0  0  0  0  0  0  0  0  0
   52.0590   51.9890   21.2400 C   0  0  0  0  0  0  0  0  0  0  0  0
   51.0960   53.1370   21.5570 C   0  0  0  0  0  0  0  0  0  0  0  0
   51.6970   54.4530   21.0570 C   0  0  0  0  0  0  0  0  0  0  0  0
   51.8860   54.3880   19.5410 C   0  0  0  0  0  0  0  0  0  0  0  0
   52.8640   53.2520   19.2020 C   0  0  0  0  0  0  0  0  0  0  0  0
   50.3480   50.5020   18.6830 C   0  0  0  0  0  0  0  0  0  0  0  0
   52.1450   50.6520   18.8770 S   0  0  0  0  0  0  0  0  0  0  0  0
   52.7470   50.9640   17.6280 O   0  0  0  0  0  0  0  0  0  0  0  0
   52.6420   49.5860   19.6740 O   0  0  0  0  0  0  0  0  0  0  0  0
   50.7910   55.5620   21.3890 N   0  0  0  0  0  0  0  0  0  0  0  0
   49.9430   55.1940   21.7920 H   0  0  0  0  0  0  0  0  0  0  0  0
   50.5690   56.0770   20.5510 H   0  0  0  0  0  0  0  0  0  0  0  0
   51.4440   56.4560   22.3540 C   0  0  0  0  0  0  0  0  0  0  0  0
   52.0450   57.6290   21.6260 C   0  0  0  0  0  0  0  0  0  0  0  0
   53.0100   58.3650   22.2130 N   0  0  0  0  0  0  0  0  0  0  0  0
   53.3970   59.1210   21.7440 H   0  0  0  0  0  0  0  0  0  0  0  0
   53.3170   58.1400   23.1050 H   0  0  0  0  0  0  0  0  0  0  0  0
   51.6620   57.9120   20.5100 O   0  0  0  0  0  0  0  0  0  0  0  0
  1  2  1  0  0  0  0
  2  3  1  0  0  0  0
  4 11  1  0  0  0  0
  4  3  1  0  0  0  0
  5  4  1  0  0  0  0
  6  5  1  0  0  0  0
  6  1  1  0  0  0  0
  7  8  1  0  0  0  0
  8 10  2  0  0  0  0
  8  1  1  0  0  0  0
  9  8  2  0  0  0  0
 11 12  1  0  0  0  0
 11 14  1  0  0  0  0
 13 11  1  0  0  0  0
 15 16  1  0  0  0  0
 15 14  1  0  0  0  0
 16 18  1  0  0  0  0
 17 16  1  0  0  0  0
 19 15  2  0  0  0  0
M  END
>  <MODEL>
7

>  <REMARK>
  Name = ZINC36828606
                            x       y       z     vdW  Elec       q    Type
                         _______ _______ _______ _____ _____    ______ ____

>  <TORSDO>
F 4

>  <minimizedAffinity>
-5.8942264949759409

$$$$
ZINC36828606
 OpenBabel10211214003D

 19 19  0  0  0  0  0  0  0  0999 V2000
   46.5850   48.9610   18.0210 N   0  0  0  0  0  0  0  0  0  0  0  0
   46.3570   50.2310   17.3170 C   0  0  0  0  0  0  0  0  0  0  0  0
   47.5690   50.5280   16.4300 C   0  0  0  0  0  0  0  0  0  0  0  0
   48.8390   50.5010   17.2830 C   0  0  0  0  0  0  0  0  0  0  0  0
   49.0180   49.1090   17.8940 C   0  0  0  0  0  0  0  0  0  0  0  0
   47.8180   48.7980   18.8020 C   0  0  0  0  0  0  0  0  0  0  0  0
   46.1850   46.5320   16.7890 C   0  0  0  0  0  0  0  0  0  0  0  0
   45.4700   47.7390   17.9390 S   0  0  0  0  0  0  0  0  0  0  0  0
   45.4280   47.1980   19.2530 O   0  0  0  0  0  0  0  0  0  0  0  0
   44.3170   48.3390   17.3650 O   0  0  0  0  0  0  0  0  0  0  0  0
   50.0010   50.8180   16.4420 N   0  0  0  0  0  0  0  0  0  0  0  0
   50.8230   50.3740   16.8230 H   0  0  0  0  0  0  0  0  0  0  0  0
   50.1390   51.8170   16.4210 H   0  0  0  0  0  0  0  0  0  0  0  0
   49.7670   50.3270   15.0770 C   0  0  0  0  0  0  0  0  0  0  0  0
   51.0170   49.6650   14.5600 C   0  0  0  0  0  0  0  0  0  0  0  0
   51.0780   48.3220   14.4620 N   0  0  0  0  0  0  0  0  0  0  0  0
   51.8820   47.8950   14.1300 H   0  0  0  0  0  0  0  0  0  0  0  0
   50.3160   47.7810   14.7250 H   0  0  0  0  0  0  0  0  0  0  0  0
   51.9690   50.3400   14.2310 O   0  0  0  0  0  0  0  0  0  0  0  0
  1  6  1  0  0  0  0
  2  1  1  0  0  0  0
  3  4  1  0  0  0  0
  3  2  1  0  0  0  0
  4  5  1  0  0  0  0
  5  6  1  0  0  0  0
  7  8  1  0  0  0  0
  8  1  1  0  0  0  0
  8  9  2  0  0  0  0
 10  8  2  0  0  0  0
 11 12  1  0  0  0  0
 11  4  1  0  0  0  0
 13 11  1  0  0  0  0
 14 11  1  0  0  0  0
 15 14  1  0  0  0  0
 16 15  1  0  0  0  0
 16 18  1  0  0  0  0
 17 16  1  0  0  0  0
 19 15  2  0  0  0  0
M  END
>  <MODEL>
8

>  <REMARK>
  Name = ZINC36828606
                            x       y       z     vdW  Elec       q    Type
                         _______ _______ _______ _____ _____    ______ ____

>  <TORSDO>
F 4

>  <minimizedAffinity>
-5.6785595076302728

$$$$
ZINC36828606
 OpenBabel10211214003D

 19 19  0  0  0  0  0  0  0  0999 V2000
   49.8160   50.1690   18.3040 N   0  0  0  0  0  0  0  0  0  0  0  0
   49.3050   50.9190   17.1480 C   0  0  0  0  0  0  0  0  0  0  0  0
   47.7780   50.9860   17.2390 C   0  0  0  0  0  0  0  0  0  0  0  0
   47.2160   49.5690   17.3670 C   0  0  0  0  0  0  0  0  0  0  0  0
   47.7470   48.9200   18.6470 C   0  0  0  0  0  0  0  0  0  0  0  0
   49.2790   48.8270   18.5680 C   0  0  0  0  0  0  0  0  0  0  0  0
   52.3330   51.2750   18.1670 C   0  0  0  0  0  0  0  0  0  0  0  0
   50.9790   50.8210   19.2860 S   0  0  0  0  0  0  0  0  0  0  0  0
   50.3800   51.9900   19.8300 O   0  0  0  0  0  0  0  0  0  0  0  0
   51.3800   49.7520   20.1320 O   0  0  0  0  0  0  0  0  0  0  0  0
   45.7490   49.6270   17.4220 N   0  0  0  0  0  0  0  0  0  0  0  0
   45.4360   50.5340   17.1110 H   0  0  0  0  0  0  0  0  0  0  0  0
   45.4410   49.4720   18.3700 H   0  0  0  0  0  0  0  0  0  0  0  0
   45.1840   48.5890   16.5490 C   0  0  0  0  0  0  0  0  0  0  0  0
   44.6310   47.4700   17.3910 C   0  0  0  0  0  0  0  0  0  0  0  0
   44.3860   46.2660   16.8360 N   0  0  0  0  0  0  0  0  0  0  0  0
   44.0300   45.5450   17.3780 H   0  0  0  0  0  0  0  0  0  0  0  0
   44.5660   46.1200   15.8930 H   0  0  0  0  0  0  0  0  0  0  0  0
   44.4060   47.6510   18.5690 O   0  0  0  0  0  0  0  0  0  0  0  0
  1  6  1  0  0  0  0
  1  8  1  0  0  0  0
  2  3  1  0  0  0  0
  2  1  1  0  0  0  0
  3  4  1  0  0  0  0
  4 11  1  0  0  0  0
  4  5  1  0  0  0  0
  6  5  1  0  0  0  0
  7  8  1  0  0  0  0
  8  9  2  0  0  0  0
  8 10  2  0  0  0  0
 11 13  1  0  0  0  0
 12 11  1  0  0  0  0
 14 15  1  0  0  0  0
 14 11  1  0  0  0  0
 15 19  2  0  0  0  0
 16 17  1  0  0  0  0
 16 15  1  0  0  0  0
 18 16  1  0  0  0  0
M  END
>  <MODEL>
9

>  <REMARK>
  Name = ZINC36828606
                            x       y       z     vdW  Elec       q    Type
                         _______ _______ _______ _____ _____    ______ ____

>  <TORSDO>
F 4

>  <minimizedAffinity>
-5.5483695518090173

$$$$
ZINC61883967
 OpenBabel10211214013D

 25 26  0  0  1  0  0  0  0  0999 V2000
   51.8160   53.6890   19.6420 S   0  0  0  0  0  0  0  0  0  0  0  0
   52.8480   53.7420   18.6670 O   0  0  0  0  0  0  0  0  0  0  0  0
   52.0860   53.6430   21.0360 O   0  0  0  0  0  0  0  0  0  0  0  0
   50.5330   48.7430   20.3220 C   0  0  0  0  0  0  0  0  0  0  0  0
   50.2970   50.0070   19.6190 N   0  0  0  0  0  0  0  0  0  0  0  0
   51.0610   51.1020   19.9190 C   0  0  0  0  0  0  0  0  0  0  0  0
   50.8440   52.2660   19.2710 C   0  0  0  0  0  0  0  0  0  0  0  0
   49.8260   52.3300   18.2900 C   0  0  0  0  0  0  0  0  0  0  0  0
   49.0950   51.2280   18.0230 N   0  0  0  0  0  0  0  0  0  0  0  0
   48.0380   51.2820   17.0100 C   0  0  0  0  0  0  0  0  0  0  0  0
   49.6120   53.3690   17.6910 O   0  0  0  0  0  0  0  0  0  0  0  0
   49.3360   50.0780   18.6810 C   0  0  0  0  0  0  0  0  0  0  0  0
   48.6720   49.0920   18.4270 O   0  0  0  0  0  0  0  0  0  0  0  0
   50.8580   55.0150   19.3900 N   0  0  0  0  0  0  0  0  0  0  0  0
   50.7250   55.3540   18.4910 H   0  0  0  0  0  0  0  0  0  0  0  0
   50.2100   55.6780   20.5250 C   0  0  2  0  0  0  0  0  0  0  0  0
   48.7630   56.0960   20.1640 C   0  0  0  0  0  0  0  0  0  0  0  0
   48.4490   57.2530   21.1350 C   0  0  0  0  0  0  0  0  0  0  0  0
   49.8030   57.8500   21.5590 C   0  0  0  0  0  0  0  0  0  0  0  0
   50.8950   57.0330   20.8330 C   0  0  1  0  0  0  0  0  0  0  0  0
   52.1080   56.8260   21.7420 C   0  0  0  0  0  0  0  0  0  0  0  0
   51.7100   56.0450   22.9210 N   0  0  0  0  0  0  0  0  0  0  0  0
   52.5130   55.5610   23.2910 H   0  0  0  0  0  0  0  0  0  0  0  0
   51.0050   55.3730   22.6560 H   0  0  0  0  0  0  0  0  0  0  0  0
   51.3360   56.6650   23.6230 H   0  0  0  0  0  0  0  0  0  0  0  0
  1  3  2  0  0  0  0
  2  1  2  0  0  0  0
  5  6  1  0  0  0  0
  5  4  1  0  0  0  0
  7  1  1  0  0  0  0
  7  6  2  0  0  0  0
  8  7  1  0  0  0  0
  9  8  1  0  0  0  0
  9 12  1  0  0  0  0
 10  9  1  0  0  0  0
 11  8  2  0  0  0  0
 12  5  1  0  0  0  0
 13 12  2  0  0  0  0
 14  1  1  0  0  0  0
 15 14  1  0  0  0  0
 16 14  1  6  0  0  0
 16 20  1  0  0  0  0
 17 16  1  0  0  0  0
 17 18  1  0  0  0  0
 18 19  1  0  0  0  0
 20 19  1  0  0  0  0
 20 21  1  1  0  0  0
 21 22  1  0  0  0  0
 22 23  1  0  0  0  0
 22 25  1  0  0  0  0
 24 22  1  0  0  0  0
M  END
>  <MODEL>
1

>  <REMARK>
  Name = ZINC61883967
                            x       y       z     vdW  Elec       q    Type
                         _______ _______ _______ _____ _____    ______ ____

>  <TORSDO>
F 5

>  <minimizedAffinity>
-7.3767827447591712

$$$$
ZINC61883967
 OpenBabel10211214013D

 25 26  0  0  1  0  0  0  0  0999 V2000
   51.7360   53.4110   19.5930 S   0  0  0  0  0  0  0  0  0  0  0  0
   52.1470   52.5720   20.6640 O   0  0  0  0  0  0  0  0  0  0  0  0
   52.3960   53.4200   18.3350 O   0  0  0  0  0  0  0  0  0  0  0  0
   54.2100   57.8110   20.6340 C   0  0  0  0  0  0  0  0  0  0  0  0
   52.9580   57.0490   20.6550 N   0  0  0  0  0  0  0  0  0  0  0  0
   52.9370   55.7660   20.1800 C   0  0  0  0  0  0  0  0  0  0  0  0
   51.7840   55.0640   20.2000 C   0  0  0  0  0  0  0  0  0  0  0  0
   50.6150   55.6750   20.7140 C   0  0  0  0  0  0  0  0  0  0  0  0
   50.6770   56.9410   21.1730 N   0  0  0  0  0  0  0  0  0  0  0  0
   49.4740   57.5830   21.7070 C   0  0  0  0  0  0  0  0  0  0  0  0
   49.5640   55.0610   20.7430 O   0  0  0  0  0  0  0  0  0  0  0  0
   51.8420   57.6170   21.1460 C   0  0  0  0  0  0  0  0  0  0  0  0
   51.8830   58.7570   21.5670 O   0  0  0  0  0  0  0  0  0  0  0  0
   50.1480   53.0470   19.2910 N   0  0  0  0  0  0  0  0  0  0  0  0
   49.5180   52.9790   20.0250 H   0  0  0  0  0  0  0  0  0  0  0  0
   49.6960   52.8290   17.9140 C   0  0  2  0  0  0  0  0  0  0  0  0
   48.6280   53.8770   17.5150 C   0  0  0  0  0  0  0  0  0  0  0  0
   47.8390   53.1980   16.3760 C   0  0  0  0  0  0  0  0  0  0  0  0
   48.0270   51.6810   16.5550 C   0  0  0  0  0  0  0  0  0  0  0  0
   48.9280   51.4890   17.7940 C   0  0  1  0  0  0  0  0  0  0  0  0
   49.9040   50.3300   17.5780 C   0  0  0  0  0  0  0  0  0  0  0  0
   51.1730   50.8490   17.0510 N   0  0  0  0  0  0  0  0  0  0  0  0
   51.7280   50.0850   16.6980 H   0  0  0  0  0  0  0  0  0  0  0  0
   51.6770   51.3190   17.7890 H   0  0  0  0  0  0  0  0  0  0  0  0
   50.9840   51.5020   16.3060 H   0  0  0  0  0  0  0  0  0  0  0  0
  1  7  1  0  0  0  0
  1  2  2  0  0  0  0
  3  1  2  0  0  0  0
  4  5  1  0  0  0  0
  5 12  1  0  0  0  0
  6  7  2  0  0  0  0
  6  5  1  0  0  0  0
  7  8  1  0  0  0  0
  8 11  2  0  0  0  0
  8  9  1  0  0  0  0
  9 10  1  0  0  0  0
 12  9  1  0  0  0  0
 12 13  2  0  0  0  0
 14  1  1  0  0  0  0
 14 15  1  0  0  0  0
 16 14  1  1  0  0  0
 17 16  1  0  0  0  0
 18 19  1  0  0  0  0
 18 17  1  0  0  0  0
 19 20  1  0  0  0  0
 20 21  1  6  0  0  0
 20 16  1  0  0  0  0
 22 21  1  0  0  0  0
 22 24  1  0  0  0  0
 23 22  1  0  0  0  0
 25 22  1  0  0  0  0
M  END
>  <MODEL>
2

>  <REMARK>
  Name = ZINC61883967
                            x       y       z     vdW  Elec       q    Type
                         _______ _______ _______ _____ _____    ______ ____

>  <TORSDO>
F 5

>  <minimizedAffinity>
-7.2149526563598885

$$$$
ZINC61883967
 OpenBabel10211214013D

 25 26  0  0  1  0  0  0  0  0999 V2000
   51.6640   53.9460   20.1490 S   0  0  0  0  0  0  0  0  0  0  0  0
   52.9210   53.9930   19.4900 O   0  0  0  0  0  0  0  0  0  0  0  0
   51.5450   53.9590   21.5650 O   0  0  0  0  0  0  0  0  0  0  0  0
   48.3600   51.4600   17.0720 C   0  0  0  0  0  0  0  0  0  0  0  0
   49.3370   51.3970   18.1620 N   0  0  0  0  0  0  0  0  0  0  0  0
   49.9550   52.5410   18.5850 C   0  0  0  0  0  0  0  0  0  0  0  0
   50.8550   52.4840   19.5900 C   0  0  0  0  0  0  0  0  0  0  0  0
   51.1410   51.2320   20.1870 C   0  0  0  0  0  0  0  0  0  0  0  0
   50.5090   50.1270   19.7420 N   0  0  0  0  0  0  0  0  0  0  0  0
   50.7970   48.8270   20.3520 C   0  0  0  0  0  0  0  0  0  0  0  0
   51.9480   51.1550   21.0960 O   0  0  0  0  0  0  0  0  0  0  0  0
   49.6120   50.2140   18.7410 C   0  0  0  0  0  0  0  0  0  0  0  0
   49.0480   49.2100   18.3530 O   0  0  0  0  0  0  0  0  0  0  0  0
   50.7870   55.2340   19.5900 N   0  0  0  0  0  0  0  0  0  0  0  0
   50.8960   55.5350   18.6740 H   0  0  0  0  0  0  0  0  0  0  0  0
   49.8450   55.9210   20.4780 C   0  0  2  0  0  0  0  0  0  0  0  0
   48.4110   55.8800   19.8940 C   0  0  0  0  0  0  0  0  0  0  0  0
   47.7030   57.0870   20.5440 C   0  0  0  0  0  0  0  0  0  0  0  0
   48.8080   58.0780   20.9500 C   0  0  0  0  0  0  0  0  0  0  0  0
   50.1520   57.4380   20.5370 C   0  0  1  0  0  0  0  0  0  0  0  0
   51.2320   57.7270   21.5810 C   0  0  0  0  0  0  0  0  0  0  0  0
   51.1720   56.7110   22.6410 N   0  0  0  0  0  0  0  0  0  0  0  0
   50.8210   57.1290   23.4880 H   0  0  0  0  0  0  0  0  0  0  0  0
   52.0980   56.3430   22.8060 H   0  0  0  0  0  0  0  0  0  0  0  0
   50.5600   55.9630   22.3540 H   0  0  0  0  0  0  0  0  0  0  0  0
  1  3  2  0  0  0  0
  2  1  2  0  0  0  0
  4  5  1  0  0  0  0
  5  6  1  0  0  0  0
  5 12  1  0  0  0  0
  6  7  2  0  0  0  0
  7  1  1  0  0  0  0
  7  8  1  0  0  0  0
  8 11  2  0  0  0  0
  9  8  1  0  0  0  0
  9 10  1  0  0  0  0
 12  9  1  0  0  0  0
 13 12  2  0  0  0  0
 14  1  1  0  0  0  0
 15 14  1  0  0  0  0
 16 14  1  6  0  0  0
 16 20  1  0  0  0  0
 17 16  1  0  0  0  0
 17 18  1  0  0  0  0
 18 19  1  0  0  0  0
 20 19  1  0  0  0  0
 20 21  1  1  0  0  0
 21 22  1  0  0  0  0
 22 24  1  0  0  0  0
 22 23  1  0  0  0  0
 25 22  1  0  0  0  0
M  END
>  <MODEL>
3

>  <REMARK>
  Name = ZINC61883967
                            x       y       z     vdW  Elec       q    Type
                         _______ _______ _______ _____ _____    ______ ____

>  <TORSDO>
F 5

>  <minimizedAffinity>
-7.1744739599871723

$$$$
ZINC61883967
 OpenBabel10211214013D

 25 26  0  0  1  0  0  0  0  0999 V2000
   49.2830   51.3080   17.1700 S   0  0  0  0  0  0  0  0  0  0  0  0
   50.2450   50.5880   16.4130 O   0  0  0  0  0  0  0  0  0  0  0  0
   48.3960   52.2480   16.5790 O   0  0  0  0  0  0  0  0  0  0  0  0
   51.1430   55.6290   19.2780 C   0  0  0  0  0  0  0  0  0  0  0  0
   50.9970   54.1720   19.3430 N   0  0  0  0  0  0  0  0  0  0  0  0
   50.3050   53.5150   18.3630 C   0  0  0  0  0  0  0  0  0  0  0  0
   50.1710   52.1730   18.4230 C   0  0  0  0  0  0  0  0  0  0  0  0
   50.7530   51.4710   19.5050 C   0  0  0  0  0  0  0  0  0  0  0  0
   51.4280   52.1540   20.4510 N   0  0  0  0  0  0  0  0  0  0  0  0
   52.0340   51.4380   21.5760 C   0  0  0  0  0  0  0  0  0  0  0  0
   50.6460   50.2600   19.5800 O   0  0  0  0  0  0  0  0  0  0  0  0
   51.5500   53.4930   20.3640 C   0  0  0  0  0  0  0  0  0  0  0  0
   52.1650   54.0950   21.2230 O   0  0  0  0  0  0  0  0  0  0  0  0
   48.3390   50.1800   17.9310 N   0  0  0  0  0  0  0  0  0  0  0  0
   48.3900   50.0740   18.8940 H   0  0  0  0  0  0  0  0  0  0  0  0
   47.4260   49.3410   17.1490 C   0  0  2  0  0  0  0  0  0  0  0  0
   45.9540   49.7560   17.3960 C   0  0  0  0  0  0  0  0  0  0  0  0
   45.1420   48.4900   17.0500 C   0  0  0  0  0  0  0  0  0  0  0  0
   46.0990   47.2960   17.2150 C   0  0  0  0  0  0  0  0  0  0  0  0
   47.4620   47.8760   17.6510 C   0  0  1  0  0  0  0  0  0  0  0  0
   48.6110   47.1120   16.9900 C   0  0  0  0  0  0  0  0  0  0  0  0
   49.1300   47.8900   15.8580 N   0  0  0  0  0  0  0  0  0  0  0  0
   50.1110   47.6940   15.7370 H   0  0  0  0  0  0  0  0  0  0  0  0
   49.0040   48.8750   16.0410 H   0  0  0  0  0  0  0  0  0  0  0  0
   48.6290   47.6370   15.0190 H   0  0  0  0  0  0  0  0  0  0  0  0
  1 14  1  0  0  0  0
  1  7  1  0  0  0  0
  2  1  2  0  0  0  0
  3  1  2  0  0  0  0
  4  5  1  0  0  0  0
  5 12  1  0  0  0  0
  6  7  2  0  0  0  0
  6  5  1  0  0  0  0
  7  8  1  0  0  0  0
  8 11  2  0  0  0  0
  8  9  1  0  0  0  0
  9 10  1  0  0  0  0
 12  9  1  0  0  0  0
 12 13  2  0  0  0  0
 14 15  1  0  0  0  0
 16 17  1  0  0  0  0
 16 20  1  0  0  0  0
 16 14  1  1  0  0  0
 18 19  1  0  0  0  0
 18 17  1  0  0  0  0
 19 20  1  0  0  0  0
 20 21  1  6  0  0  0
 22 24  1  0  0  0  0
 22 21  1  0  0  0  0
 23 22  1  0  0  0  0
 25 22  1  0  0  0  0
M  END
>  <MODEL>
4

>  <REMARK>
  Name = ZINC61883967
                            x       y       z     vdW  Elec       q    Type
                         _______ _______ _______ _____ _____    ______ ____

>  <TORSDO>
F 5

>  <minimizedAffinity>
-7.1658560936510316

$$$$
ZINC61883967
 OpenBabel10211214013D

 25 26  0  0  1  0  0  0  0  0999 V2000
   50.9600   53.9230   19.9050 S   0  0  0  0  0  0  0  0  0  0  0  0
   51.4830   54.5730   18.7550 O   0  0  0  0  0  0  0  0  0  0  0  0
   51.7260   53.7290   21.0860 O   0  0  0  0  0  0  0  0  0  0  0  0
   50.8700   48.7870   20.3210 C   0  0  0  0  0  0  0  0  0  0  0  0
   50.4180   49.9880   19.6150 N   0  0  0  0  0  0  0  0  0  0  0  0
   50.8420   51.2200   20.0330 C   0  0  0  0  0  0  0  0  0  0  0  0
   50.4260   52.3270   19.3820 C   0  0  0  0  0  0  0  0  0  0  0  0
   49.5550   52.1890   18.2750 C   0  0  0  0  0  0  0  0  0  0  0  0
   49.1600   50.9570   17.8940 N   0  0  0  0  0  0  0  0  0  0  0  0
   48.2580   50.8010   16.7500 C   0  0  0  0  0  0  0  0  0  0  0  0
   49.1660   53.1730   17.6720 O   0  0  0  0  0  0  0  0  0  0  0  0
   49.5940   49.8690   18.5580 C   0  0  0  0  0  0  0  0  0  0  0  0
   49.2330   48.7650   18.2010 O   0  0  0  0  0  0  0  0  0  0  0  0
   49.6080   54.7690   20.3520 N   0  0  0  0  0  0  0  0  0  0  0  0
   48.7900   54.2960   20.5700 H   0  0  0  0  0  0  0  0  0  0  0  0
   49.6470   56.2320   20.4190 C   0  0  2  0  0  0  0  0  0  0  0  0
   50.0360   56.7060   21.8420 C   0  0  0  0  0  0  0  0  0  0  0  0
   49.4590   58.1340   21.9360 C   0  0  0  0  0  0  0  0  0  0  0  0
   48.3100   58.2120   20.9140 C   0  0  0  0  0  0  0  0  0  0  0  0
   48.2310   56.8290   20.2310 C   0  0  1  0  0  0  0  0  0  0  0  0
   47.9070   56.9800   18.7430 C   0  0  0  0  0  0  0  0  0  0  0  0
   48.8900   56.2310   17.9490 N   0  0  0  0  0  0  0  0  0  0  0  0
   48.9370   55.2810   18.2820 H   0  0  0  0  0  0  0  0  0  0  0  0
   49.7960   56.6650   18.0400 H   0  0  0  0  0  0  0  0  0  0  0  0
   48.6120   56.2360   16.9790 H   0  0  0  0  0  0  0  0  0  0  0  0
  1 14  1  0  0  0  0
  1  3  2  0  0  0  0
  2  1  2  0  0  0  0
  5  6  1  0  0  0  0
  5  4  1  0  0  0  0
  7  1  1  0  0  0  0
  7  6  2  0  0  0  0
  8  7  1  0  0  0  0
  9  8  1  0  0  0  0
  9 12  1  0  0  0  0
 10  9  1  0  0  0  0
 11  8  2  0  0  0  0
 12  5  1  0  0  0  0
 13 12  2  0  0  0  0
 14 15  1  0  0  0  0
 16 14  1  1  0  0  0
 16 17  1  0  0  0  0
 17 18  1  0  0  0  0
 19 18  1  0  0  0  0
 20 21  1  6  0  0  0
 20 16  1  0  0  0  0
 20 19  1  0  0  0  0
 22 24  1  0  0  0  0
 22 23  1  0  0  0  0
 22 21  1  0  0  0  0
 25 22  1  0  0  0  0
M  END
>  <MODEL>
5

>  <REMARK>
  Name = ZINC61883967
                            x       y       z     vdW  Elec       q    Type
                         _______ _______ _______ _____ _____    ______ ____

>  <TORSDO>
F 5

>  <minimizedAffinity>
-7.1538059106749925

$$$$
ZINC61883967
 OpenBabel10211214013D

 25 26  0  0  1  0  0  0  0  0999 V2000
   50.2130   53.5550   18.5690 S   0  0  0  0  0  0  0  0  0  0  0  0
   49.2100   54.2150   17.8100 O   0  0  0  0  0  0  0  0  0  0  0  0
   51.5990   53.7090   18.2980 O   0  0  0  0  0  0  0  0  0  0  0  0
   48.0790   49.4620   16.2770 C   0  0  0  0  0  0  0  0  0  0  0  0
   48.8760   49.9960   17.3840 N   0  0  0  0  0  0  0  0  0  0  0  0
   49.1340   51.3380   17.4480 C   0  0  0  0  0  0  0  0  0  0  0  0
   49.8690   51.8300   18.4680 C   0  0  0  0  0  0  0  0  0  0  0  0
   50.3590   50.9420   19.4550 C   0  0  0  0  0  0  0  0  0  0  0  0
   50.0830   49.6260   19.3560 N   0  0  0  0  0  0  0  0  0  0  0  0
   50.5860   48.6970   20.3710 C   0  0  0  0  0  0  0  0  0  0  0  0
   51.0240   51.3620   20.3850 O   0  0  0  0  0  0  0  0  0  0  0  0
   49.3440   49.1620   18.3310 C   0  0  0  0  0  0  0  0  0  0  0  0
   49.1000   47.9730   18.2570 O   0  0  0  0  0  0  0  0  0  0  0  0
   49.9870   54.0080   20.1460 N   0  0  0  0  0  0  0  0  0  0  0  0
   49.3130   53.5650   20.6860 H   0  0  0  0  0  0  0  0  0  0  0  0
   50.8040   55.0770   20.7260 C   0  0  2  0  0  0  0  0  0  0  0  0
   51.4610   54.6100   22.0480 C   0  0  0  0  0  0  0  0  0  0  0  0
   51.7400   55.9190   22.8160 C   0  0  0  0  0  0  0  0  0  0  0  0
   50.7560   56.9680   22.2670 C   0  0  0  0  0  0  0  0  0  0  0  0
   49.9150   56.2620   21.1810 C   0  0  1  0  0  0  0  0  0  0  0  0
   49.6420   57.2070   20.0090 C   0  0  0  0  0  0  0  0  0  0  0  0
   48.4450   56.7590   19.2870 N   0  0  0  0  0  0  0  0  0  0  0  0
   47.7880   56.3610   19.9400 H   0  0  0  0  0  0  0  0  0  0  0  0
   48.7050   56.0610   18.6050 H   0  0  0  0  0  0  0  0  0  0  0  0
   48.0210   57.5450   18.8180 H   0  0  0  0  0  0  0  0  0  0  0  0
  1 14  1  0  0  0  0
  2  1  2  0  0  0  0
  3  1  2  0  0  0  0
  4  5  1  0  0  0  0
  5  6  1  0  0  0  0
  5 12  1  0  0  0  0
  6  7  2  0  0  0  0
  7  1  1  0  0  0  0
  7  8  1  0  0  0  0
  8 11  2  0  0  0  0
  9  8  1  0  0  0  0
  9 10  1  0  0  0  0
 12  9  1  0  0  0  0
 13 12  2  0  0  0  0
 14 15  1  0  0  0  0
 16 14  1  1  0  0  0
 16 20  1  0  0  0  0
 16 17  1  0  0  0  0
 17 18  1  0  0  0  0
 19 18  1  0  0  0  0
 20 21  1  6  0  0  0
 20 19  1  0  0  0  0
 22 23  1  0  0  0  0
 22 21  1  0  0  0  0
 24 22  1  0  0  0  0
 25 22  1  0  0  0  0
M  END
>  <MODEL>
6

>  <REMARK>
  Name = ZINC61883967
                            x       y       z     vdW  Elec       q    Type
                         _______ _______ _______ _____ _____    ______ ____

>  <TORSDO>
F 5

>  <minimizedAffinity>
-7.0726195551789361

$$$$
ZINC61883967
 OpenBabel10211214013D

 25 26  0  0  1  0  0  0  0  0999 V2000
   51.1320   51.8460   20.1680 S   0  0  0  0  0  0  0  0  0  0  0  0
   52.2930   52.3130   19.4960 O   0  0  0  0  0  0  0  0  0  0  0  0
   51.1860   50.8530   21.1820 O   0  0  0  0  0  0  0  0  0  0  0  0
   48.7190   48.0170   17.7020 C   0  0  0  0  0  0  0  0  0  0  0  0
   48.9640   49.4550   17.8340 N   0  0  0  0  0  0  0  0  0  0  0  0
   49.8140   49.9120   18.8040 C   0  0  0  0  0  0  0  0  0  0  0  0
   50.0410   51.2370   18.9250 C   0  0  0  0  0  0  0  0  0  0  0  0
   49.3900   52.1310   18.0410 C   0  0  0  0  0  0  0  0  0  0  0  0
   48.5600   51.6410   17.0980 N   0  0  0  0  0  0  0  0  0  0  0  0
   47.8810   52.5560   16.1780 C   0  0  0  0  0  0  0  0  0  0  0  0
   49.5790   53.3300   18.1300 O   0  0  0  0  0  0  0  0  0  0  0  0
   48.3560   50.3140   16.9960 C   0  0  0  0  0  0  0  0  0  0  0  0
   47.6070   49.8870   16.1380 O   0  0  0  0  0  0  0  0  0  0  0  0
   50.4100   53.1740   20.8440 N   0  0  0  0  0  0  0  0  0  0  0  0
   49.4480   53.1940   20.9670 H   0  0  0  0  0  0  0  0  0  0  0  0
   51.2240   54.3200   21.2580 C   0  0  2  0  0  0  0  0  0  0  0  0
   51.5060   54.2710   22.7800 C   0  0  0  0  0  0  0  0  0  0  0  0
   51.7940   55.7380   23.1600 C   0  0  0  0  0  0  0  0  0  0  0  0
   51.1110   56.6100   22.0900 C   0  0  0  0  0  0  0  0  0  0  0  0
   50.4350   55.6420   21.0950 C   0  0  1  0  0  0  0  0  0  0  0  0
   50.5590   56.1670   19.6630 C   0  0  0  0  0  0  0  0  0  0  0  0
   51.5690   55.3840   18.9400 N   0  0  0  0  0  0  0  0  0  0  0  0
   52.2280   56.0080   18.5010 H   0  0  0  0  0  0  0  0  0  0  0  0
   51.1170   54.8210   18.2340 H   0  0  0  0  0  0  0  0  0  0  0  0
   52.0550   54.7830   19.5880 H   0  0  0  0  0  0  0  0  0  0  0  0
  1 14  1  0  0  0  0
  1  3  2  0  0  0  0
  2  1  2  0  0  0  0
  4  5  1  0  0  0  0
  5  6  1  0  0  0  0
  6  7  2  0  0  0  0
  7  1  1  0  0  0  0
  8 11  2  0  0  0  0
  8  7  1  0  0  0  0
  9  8  1  0  0  0  0
 10  9  1  0  0  0  0
 12  9  1  0  0  0  0
 12  5  1  0  0  0  0
 13 12  2  0  0  0  0
 14 15  1  0  0  0  0
 16 14  1  1  0  0  0
 16 17  1  0  0  0  0
 17 18  1  0  0  0  0
 19 18  1  0  0  0  0
 20 21  1  6  0  0  0
 20 16  1  0  0  0  0
 20 19  1  0  0  0  0
 22 25  1  0  0  0  0
 22 21  1  0  0  0  0
 23 22  1  0  0  0  0
 24 22  1  0  0  0  0
M  END
>  <MODEL>
7

>  <REMARK>
  Name = ZINC61883967
                            x       y       z     vdW  Elec       q    Type
                         _______ _______ _______ _____ _____    ______ ____

>  <TORSDO>
F 5

>  <minimizedAffinity>
-7.0393060388345958

$$$$
ZINC61883967
 OpenBabel10211214013D

 25 26  0  0  1  0  0  0  0  0999 V2000
   51.5960   52.7510   19.4670 S   0  0  0  0  0  0  0  0  0  0  0  0
   52.5270   52.2070   20.3920 O   0  0  0  0  0  0  0  0  0  0  0  0
   51.9180   52.9640   18.1000 O   0  0  0  0  0  0  0  0  0  0  0  0
   52.4620   57.0580   22.1620 C   0  0  0  0  0  0  0  0  0  0  0  0
   51.5380   56.2580   21.3540 N   0  0  0  0  0  0  0  0  0  0  0  0
   51.9440   55.0490   20.8590 C   0  0  0  0  0  0  0  0  0  0  0  0
   51.0930   54.3100   20.1150 C   0  0  0  0  0  0  0  0  0  0  0  0
   49.7920   54.8060   19.8620 C   0  0  0  0  0  0  0  0  0  0  0  0
   49.4300   56.0020   20.3680 N   0  0  0  0  0  0  0  0  0  0  0  0
   48.0860   56.5260   20.1130 C   0  0  0  0  0  0  0  0  0  0  0  0
   49.0060   54.1590   19.1940 O   0  0  0  0  0  0  0  0  0  0  0  0
   50.2970   56.7160   21.1110 C   0  0  0  0  0  0  0  0  0  0  0  0
   49.9550   57.7910   21.5650 O   0  0  0  0  0  0  0  0  0  0  0  0
   50.2700   51.7600   19.4910 N   0  0  0  0  0  0  0  0  0  0  0  0
   49.4990   51.9940   20.0320 H   0  0  0  0  0  0  0  0  0  0  0  0
   50.2600   50.5290   18.6960 C   0  0  2  0  0  0  0  0  0  0  0  0
   49.2930   50.6620   17.4930 C   0  0  0  0  0  0  0  0  0  0  0  0
   48.9200   49.2060   17.1440 C   0  0  0  0  0  0  0  0  0  0  0  0
   49.1430   48.3780   18.4220 C   0  0  0  0  0  0  0  0  0  0  0  0
   49.6470   49.3580   19.5040 C   0  0  1  0  0  0  0  0  0  0  0  0
   50.7140   48.6960   20.3780 C   0  0  0  0  0  0  0  0  0  0  0  0
   52.0480   49.0620   19.8850 N   0  0  0  0  0  0  0  0  0  0  0  0
   52.3780   48.3510   19.2500 H   0  0  0  0  0  0  0  0  0  0  0  0
   52.6850   49.1380   20.6650 H   0  0  0  0  0  0  0  0  0  0  0  0
   51.9970   49.9470   19.4050 H   0  0  0  0  0  0  0  0  0  0  0  0
  1 14  1  0  0  0  0
  1  7  1  0  0  0  0
  1  2  2  0  0  0  0
  3  1  2  0  0  0  0
  5  4  1  0  0  0  0
  6  5  1  0  0  0  0
  7  6  2  0  0  0  0
  8  7  1  0  0  0  0
  8  9  1  0  0  0  0
  9 12  1  0  0  0  0
 10  9  1  0  0  0  0
 11  8  2  0  0  0  0
 12  5  1  0  0  0  0
 12 13  2  0  0  0  0
 14 15  1  0  0  0  0
 16 14  1  1  0  0  0
 16 20  1  0  0  0  0
 17 16  1  0  0  0  0
 18 17  1  0  0  0  0
 18 19  1  0  0  0  0
 19 20  1  0  0  0  0
 20 21  1  6  0  0  0
 22 21  1  0  0  0  0
 22 24  1  0  0  0  0
 23 22  1  0  0  0  0
 25 22  1  0  0  0  0
M  END
>  <MODEL>
8

>  <REMARK>
  Name = ZINC61883967
                            x       y       z     vdW  Elec       q    Type
                         _______ _______ _______ _____ _____    ______ ____

>  <TORSDO>
F 5

>  <minimizedAffinity>
-7.0327437865713458

$$$$
ZINC61883967
 OpenBabel10211214013D

 25 26  0  0  1  0  0  0  0  0999 V2000
   51.2870   50.4120   19.8240 S   0  0  0  0  0  0  0  0  0  0  0  0
   52.4910   49.8100   19.3700 O   0  0  0  0  0  0  0  0  0  0  0  0
   50.7710   50.1920   21.1300 O   0  0  0  0  0  0  0  0  0  0  0  0
   46.7640   48.2000   18.7250 C   0  0  0  0  0  0  0  0  0  0  0  0
   47.9540   48.9080   18.2470 N   0  0  0  0  0  0  0  0  0  0  0  0
   48.9260   49.2760   19.1360 C   0  0  0  0  0  0  0  0  0  0  0  0
   50.0230   49.9290   18.6960 C   0  0  0  0  0  0  0  0  0  0  0  0
   50.1440   50.2200   17.3160 C   0  0  0  0  0  0  0  0  0  0  0  0
   49.1640   49.8400   16.4710 N   0  0  0  0  0  0  0  0  0  0  0  0
   49.2770   50.1360   15.0410 C   0  0  0  0  0  0  0  0  0  0  0  0
   51.1240   50.8070   16.8950 O   0  0  0  0  0  0  0  0  0  0  0  0
   48.0820   49.1860   16.9370 C   0  0  0  0  0  0  0  0  0  0  0  0
   47.2090   48.8460   16.1630 O   0  0  0  0  0  0  0  0  0  0  0  0
   51.4860   52.0480   19.6640 N   0  0  0  0  0  0  0  0  0  0  0  0
   52.2690   52.4000   19.2120 H   0  0  0  0  0  0  0  0  0  0  0  0
   50.4800   52.9650   20.2060 C   0  0  2  0  0  0  0  0  0  0  0  0
   49.5380   53.4700   19.0840 C   0  0  0  0  0  0  0  0  0  0  0  0
   48.9860   54.8050   19.6250 C   0  0  0  0  0  0  0  0  0  0  0  0
   50.0070   55.3150   20.6590 C   0  0  0  0  0  0  0  0  0  0  0  0
   51.1420   54.2700   20.7140 C   0  0  1  0  0  0  0  0  0  0  0  0
   51.6440   54.0930   22.1490 C   0  0  0  0  0  0  0  0  0  0  0  0
   51.3720   52.7200   22.5960 N   0  0  0  0  0  0  0  0  0  0  0  0
   50.5900   52.3470   22.0800 H   0  0  0  0  0  0  0  0  0  0  0  0
   51.1530   52.7250   23.5820 H   0  0  0  0  0  0  0  0  0  0  0  0
   52.1870   52.1480   22.4360 H   0  0  0  0  0  0  0  0  0  0  0  0
  1  3  2  0  0  0  0
  2  1  2  0  0  0  0
  5  4  1  0  0  0  0
  5  6  1  0  0  0  0
  7  6  2  0  0  0  0
  7  1  1  0  0  0  0
  8  7  1  0  0  0  0
  9 12  1  0  0  0  0
  9  8  1  0  0  0  0
 10  9  1  0  0  0  0
 11  8  2  0  0  0  0
 12  5  1  0  0  0  0
 13 12  2  0  0  0  0
 14  1  1  0  0  0  0
 15 14  1  0  0  0  0
 16 14  1  6  0  0  0
 16 20  1  0  0  0  0
 17 18  1  0  0  0  0
 17 16  1  0  0  0  0
 18 19  1  0  0  0  0
 19 20  1  0  0  0  0
 20 21  1  1  0  0  0
 21 22  1  0  0  0  0
 22 24  1  0  0  0  0
 23 22  1  0  0  0  0
 25 22  1  0  0  0  0
M  END
>  <MODEL>
9

>  <REMARK>
  Name = ZINC61883967
                            x       y       z     vdW  Elec       q    Type
                         _______ _______ _______ _____ _____    ______ ____

>  <TORSDO>
F 5

>  <minimizedAffinity>
-6.8657440840529071

$$$$
ZINC50246681
 OpenBabel10211214013D

 22 23  0  0  1  0  0  0  0  0999 V2000
   51.8690   55.7260   20.2310 S   0  0  0  0  0  0  0  0  0  0  0  0
   51.9220   55.8460   18.8160 O   0  0  0  0  0  0  0  0  0  0  0  0
   52.9230   56.1700   21.0740 O   0  0  0  0  0  0  0  0  0  0  0  0
   51.4290   53.1210   19.5730 C   0  0  0  0  0  0  0  0  0  0  0  0
   51.6290   54.0160   20.5830 C   0  0  1  0  0  0  0  0  0  0  0  0
   51.6410   53.5500   21.9090 C   0  0  0  0  0  0  0  0  0  0  0  0
   51.4540   52.2330   22.1360 N   0  0  0  0  0  0  0  0  0  0  0  0
   51.2590   51.3890   21.0890 C   0  0  0  0  0  0  0  0  0  0  0  0
   51.0730   50.0740   21.3240 O   0  0  0  0  0  0  0  0  0  0  0  0
   51.4580   51.8890   23.0430 H   0  0  0  0  0  0  0  0  0  0  0  0
   51.8170   54.3210   22.8380 O   0  0  0  0  0  0  0  0  0  0  0  0
   51.2490   51.8310   19.8500 N   0  0  0  0  0  0  0  0  0  0  0  0
   50.5030   56.5230   20.7220 N   0  0  0  0  0  0  0  0  0  0  0  0
   50.3220   57.2020   22.0170 C   0  0  0  0  0  0  0  0  0  0  0  0
   49.2230   58.2620   21.7610 C   0  0  0  0  0  0  0  0  0  0  0  0
   48.2850   57.5060   20.7820 C   0  0  2  0  0  0  0  0  0  0  0  0
   49.2700   56.6750   19.9350 C   0  0  0  0  0  0  0  0  0  0  0  0
   47.5110   58.4920   19.9040 C   0  0  0  0  0  0  0  0  0  0  0  0
   47.6920   58.1340   18.4910 N   0  0  0  0  0  0  0  0  0  0  0  0
   46.8810   57.6300   18.1640 H   0  0  0  0  0  0  0  0  0  0  0  0
   48.5110   57.5540   18.3920 H   0  0  0  0  0  0  0  0  0  0  0  0
   47.8070   58.9740   17.9440 H   0  0  0  0  0  0  0  0  0  0  0  0
  1 13  1  0  0  0  0
  1  3  2  0  0  0  0
  2  1  2  0  0  0  0
  4 12  2  0  0  0  0
  4  5  1  0  0  0  0
  5  1  1  6  0  0  0
  5  6  1  0  0  0  0
  6  7  1  0  0  0  0
  6 11  2  0  0  0  0
  7 10  1  0  0  0  0
  8  9  2  0  0  0  0
  8  7  1  0  0  0  0
 12  8  1  0  0  0  0
 13 14  1  0  0  0  0
 15 14  1  0  0  0  0
 16 18  1  6  0  0  0
 16 15  1  0  0  0  0
 17 13  1  0  0  0  0
 17 16  1  0  0  0  0
 19 18  1  0  0  0  0
 20 19  1  0  0  0  0
 21 19  1  0  0  0  0
 22 19  1  0  0  0  0
M  END
>  <MODEL>
1

>  <REMARK>
  Name = ZINC50246681
                            x       y       z     vdW  Elec       q    Type
                         _______ _______ _______ _____ _____    ______ ____

>  <TORSDO>
F 4

>  <minimizedAffinity>
-7.13275560124222

$$$$
ZINC50246681
 OpenBabel10211214013D

 22 23  0  0  1  0  0  0  0  0999 V2000
   52.3240   51.5340   19.5440 S   0  0  0  0  0  0  0  0  0  0  0  0
   52.8640   51.9650   18.3040 O   0  0  0  0  0  0  0  0  0  0  0  0
   53.0590   50.7330   20.4600 O   0  0  0  0  0  0  0  0  0  0  0  0
   50.6290   49.4100   19.7030 C   0  0  0  0  0  0  0  0  0  0  0  0
   50.8480   50.6460   19.1700 C   0  0  1  0  0  0  0  0  0  0  0  0
   49.8760   51.2000   18.3180 C   0  0  0  0  0  0  0  0  0  0  0  0
   48.7610   50.4870   18.0580 N   0  0  0  0  0  0  0  0  0  0  0  0
   48.5970   49.2600   18.6170 C   0  0  0  0  0  0  0  0  0  0  0  0
   47.4790   48.5540   18.3510 O   0  0  0  0  0  0  0  0  0  0  0  0
   48.0770   50.8500   17.4720 H   0  0  0  0  0  0  0  0  0  0  0  0
   50.0380   52.3040   17.8240 O   0  0  0  0  0  0  0  0  0  0  0  0
   49.5100   48.7480   19.4130 N   0  0  0  0  0  0  0  0  0  0  0  0
   51.8770   52.9010   20.3650 N   0  0  0  0  0  0  0  0  0  0  0  0
   51.2490   52.9370   21.6990 C   0  0  0  0  0  0  0  0  0  0  0  0
   51.5980   54.3350   22.2650 C   0  0  0  0  0  0  0  0  0  0  0  0
   51.5110   55.2180   20.9910 C   0  0  2  0  0  0  0  0  0  0  0  0
   52.0470   54.2820   19.8870 C   0  0  0  0  0  0  0  0  0  0  0  0
   52.3980   56.4570   21.1290 C   0  0  0  0  0  0  0  0  0  0  0  0
   52.2010   57.0560   22.4550 N   0  0  0  0  0  0  0  0  0  0  0  0
   52.1910   56.3290   23.1550 H   0  0  0  0  0  0  0  0  0  0  0  0
   51.3230   57.5520   22.4730 H   0  0  0  0  0  0  0  0  0  0  0  0
   52.9540   57.6980   22.6500 H   0  0  0  0  0  0  0  0  0  0  0  0
  1 13  1  0  0  0  0
  1  3  2  0  0  0  0
  2  1  2  0  0  0  0
  5  1  1  1  0  0  0
  5  4  1  0  0  0  0
  6  5  1  0  0  0  0
  7  6  1  0  0  0  0
  7  8  1  0  0  0  0
  8 12  1  0  0  0  0
  9  8  2  0  0  0  0
 10  7  1  0  0  0  0
 11  6  2  0  0  0  0
 12  4  2  0  0  0  0
 13 14  1  0  0  0  0
 14 15  1  0  0  0  0
 16 18  1  1  0  0  0
 16 15  1  0  0  0  0
 17 13  1  0  0  0  0
 17 16  1  0  0  0  0
 18 19  1  0  0  0  0
 19 21  1  0  0  0  0
 19 22  1  0  0  0  0
 19 20  1  0  0  0  0
M  END
>  <MODEL>
2

>  <REMARK>
  Name = ZINC50246681
                            x       y       z     vdW  Elec       q    Type
                         _______ _______ _______ _____ _____    ______ ____

>  <TORSDO>
F 4

>  <minimizedAffinity>
-6.9145805651973395

$$$$
ZINC50246681
 OpenBabel10211214013D

 22 23  0  0  1  0  0  0  0  0999 V2000
   50.3670   54.7720   19.9010 S   0  0  0  0  0  0  0  0  0  0  0  0
   50.4790   54.9340   18.4940 O   0  0  0  0  0  0  0  0  0  0  0  0
   49.1130   54.7580   20.5700 O   0  0  0  0  0  0  0  0  0  0  0  0
   52.6690   56.1030   20.4830 C   0  0  0  0  0  0  0  0  0  0  0  0
   51.3140   56.0640   20.6350 C   0  0  1  0  0  0  0  0  0  0  0  0
   50.6860   57.0730   21.3870 C   0  0  0  0  0  0  0  0  0  0  0  0
   51.4480   58.0450   21.9320 N   0  0  0  0  0  0  0  0  0  0  0  0
   52.7940   58.0310   21.7470 C   0  0  0  0  0  0  0  0  0  0  0  0
   53.5480   59.0060   22.2950 O   0  0  0  0  0  0  0  0  0  0  0  0
   51.0360   58.7500   22.4540 H   0  0  0  0  0  0  0  0  0  0  0  0
   49.4760   57.0700   21.5430 O   0  0  0  0  0  0  0  0  0  0  0  0
   53.3750   57.0840   21.0420 N   0  0  0  0  0  0  0  0  0  0  0  0
   51.1170   53.3430   20.2730 N   0  0  0  0  0  0  0  0  0  0  0  0
   50.9750   52.6010   21.5390 C   0  0  0  0  0  0  0  0  0  0  0  0
   51.3190   51.1340   21.1800 C   0  0  0  0  0  0  0  0  0  0  0  0
   52.4620   51.3260   20.1480 C   0  0  2  0  0  0  0  0  0  0  0  0
   52.0320   52.6010   19.3930 C   0  0  0  0  0  0  0  0  0  0  0  0
   52.5380   50.1310   19.1960 C   0  0  0  0  0  0  0  0  0  0  0  0
   52.8870   48.9220   19.9540 N   0  0  0  0  0  0  0  0  0  0  0  0
   53.8560   48.9690   20.2350 H   0  0  0  0  0  0  0  0  0  0  0  0
   52.7440   48.1090   19.3750 H   0  0  0  0  0  0  0  0  0  0  0  0
   52.3030   48.8590   20.7740 H   0  0  0  0  0  0  0  0  0  0  0  0
  1 13  1  0  0  0  0
  1  3  2  0  0  0  0
  2  1  2  0  0  0  0
  4  5  1  0  0  0  0
  4 12  2  0  0  0  0
  5  1  1  6  0  0  0
  5  6  1  0  0  0  0
  6 11  2  0  0  0  0
  6  7  1  0  0  0  0
  7 10  1  0  0  0  0
  8  7  1  0  0  0  0
  8  9  2  0  0  0  0
 12  8  1  0  0  0  0
 13 14  1  0  0  0  0
 15 14  1  0  0  0  0
 16 18  1  6  0  0  0
 16 15  1  0  0  0  0
 17 16  1  0  0  0  0
 17 13  1  0  0  0  0
 18 19  1  0  0  0  0
 19 20  1  0  0  0  0
 19 22  1  0  0  0  0
 21 19  1  0  0  0  0
M  END
>  <MODEL>
3

>  <REMARK>
  Name = ZINC50246681
                            x       y       z     vdW  Elec       q    Type
                         _______ _______ _______ _____ _____    ______ ____

>  <TORSDO>
F 4

>  <minimizedAffinity>
-6.9039328900614541

$$$$
ZINC50246681
 OpenBabel10211214013D

 22 23  0  0  1  0  0  0  0  0999 V2000
   51.8300   54.3240   20.9680 S   0  0  0  0  0  0  0  0  0  0  0  0
   51.9270   53.9560   22.3360 O   0  0  0  0  0  0  0  0  0  0  0  0
   52.8820   54.9900   20.2810 O   0  0  0  0  0  0  0  0  0  0  0  0
   49.3630   54.9790   20.0220 C   0  0  0  0  0  0  0  0  0  0  0  0
   50.4050   55.3500   20.8210 C   0  0  1  0  0  0  0  0  0  0  0  0
   50.3220   56.5640   21.5250 C   0  0  0  0  0  0  0  0  0  0  0  0
   49.2130   57.3200   21.3850 N   0  0  0  0  0  0  0  0  0  0  0  0
   48.2070   56.9000   20.5750 C   0  0  0  0  0  0  0  0  0  0  0  0
   47.1020   57.6610   20.4410 O   0  0  0  0  0  0  0  0  0  0  0  0
   49.1340   58.1620   21.8610 H   0  0  0  0  0  0  0  0  0  0  0  0
   51.2340   56.9280   22.2490 O   0  0  0  0  0  0  0  0  0  0  0  0
   48.2910   55.7630   19.9190 N   0  0  0  0  0  0  0  0  0  0  0  0
   51.5220   52.9330   20.1250 N   0  0  0  0  0  0  0  0  0  0  0  0
   51.7680   52.7270   18.6860 C   0  0  0  0  0  0  0  0  0  0  0  0
   51.9210   51.1940   18.5250 C   0  0  0  0  0  0  0  0  0  0  0  0
   50.8730   50.6680   19.5410 C   0  0  2  0  0  0  0  0  0  0  0  0
   50.9610   51.6960   20.6880 C   0  0  0  0  0  0  0  0  0  0  0  0
   51.2520   49.2710   20.0350 C   0  0  0  0  0  0  0  0  0  0  0  0
   52.6890   49.0490   19.8220 N   0  0  0  0  0  0  0  0  0  0  0  0
   52.8800   48.0580   19.8210 H   0  0  0  0  0  0  0  0  0  0  0  0
   53.2110   49.4910   20.5640 H   0  0  0  0  0  0  0  0  0  0  0  0
   52.9630   49.4450   18.9360 H   0  0  0  0  0  0  0  0  0  0  0  0
  1  2  2  0  0  0  0
  3  1  2  0  0  0  0
  4  5  1  0  0  0  0
  5  1  1  1  0  0  0
  5  6  1  0  0  0  0
  6 11  2  0  0  0  0
  7  6  1  0  0  0  0
  7 10  1  0  0  0  0
  8  7  1  0  0  0  0
  9  8  2  0  0  0  0
 12  4  2  0  0  0  0
 12  8  1  0  0  0  0
 13 17  1  0  0  0  0
 13  1  1  0  0  0  0
 14 13  1  0  0  0  0
 15 14  1  0  0  0  0
 15 16  1  0  0  0  0
 16 18  1  1  0  0  0
 16 17  1  0  0  0  0
 19 18  1  0  0  0  0
 19 21  1  0  0  0  0
 20 19  1  0  0  0  0
 22 19  1  0  0  0  0
M  END
>  <MODEL>
4

>  <REMARK>
  Name = ZINC50246681
                            x       y       z     vdW  Elec       q    Type
                         _______ _______ _______ _____ _____    ______ ____

>  <TORSDO>
F 4

>  <minimizedAffinity>
-6.8751672292249708

$$$$
ZINC50246681
 OpenBabel10211214013D

 22 23  0  0  1  0  0  0  0  0999 V2000
   52.3780   51.8300   19.1510 S   0  0  0  0  0  0  0  0  0  0  0  0
   53.0980   50.8060   19.8220 O   0  0  0  0  0  0  0  0  0  0  0  0
   52.8710   52.4640   17.9780 O   0  0  0  0  0  0  0  0  0  0  0  0
   52.2270   54.4180   19.9820 C   0  0  0  0  0  0  0  0  0  0  0  0
   52.0980   53.1070   20.3330 C   0  0  1  0  0  0  0  0  0  0  0  0
   51.7360   52.7910   21.6550 C   0  0  0  0  0  0  0  0  0  0  0  0
   51.5300   53.7980   22.5290 N   0  0  0  0  0  0  0  0  0  0  0  0
   51.6740   55.0860   22.1220 C   0  0  0  0  0  0  0  0  0  0  0  0
   51.4660   56.0870   23.0010 O   0  0  0  0  0  0  0  0  0  0  0  0
   51.2800   53.6040   23.4460 H   0  0  0  0  0  0  0  0  0  0  0  0
   51.6110   51.6290   22.0050 O   0  0  0  0  0  0  0  0  0  0  0  0
   52.0130   55.3750   20.8830 N   0  0  0  0  0  0  0  0  0  0  0  0
   50.9020   51.1920   18.7600 N   0  0  0  0  0  0  0  0  0  0  0  0
   49.8280   51.8920   18.0310 C   0  0  0  0  0  0  0  0  0  0  0  0
   48.9810   50.7640   17.3910 C   0  0  0  0  0  0  0  0  0  0  0  0
   49.0230   49.6780   18.4990 C   0  0  2  0  0  0  0  0  0  0  0  0
   50.4450   49.8310   19.0770 C   0  0  0  0  0  0  0  0  0  0  0  0
   48.8290   48.2840   17.8970 C   0  0  0  0  0  0  0  0  0  0  0  0
   49.1840   48.3120   16.4720 N   0  0  0  0  0  0  0  0  0  0  0  0
   50.0010   48.8900   16.3390 H   0  0  0  0  0  0  0  0  0  0  0  0
   48.4140   48.6890   15.9410 H   0  0  0  0  0  0  0  0  0  0  0  0
   49.3830   47.3740   16.1570 H   0  0  0  0  0  0  0  0  0  0  0  0
  1  2  2  0  0  0  0
  3  1  2  0  0  0  0
  4  5  1  0  0  0  0
  4 12  2  0  0  0  0
  5  1  1  6  0  0  0
  5  6  1  0  0  0  0
  6 11  2  0  0  0  0
  6  7  1  0  0  0  0
  7 10  1  0  0  0  0
  8  7  1  0  0  0  0
  8  9  2  0  0  0  0
 12  8  1  0  0  0  0
 13 17  1  0  0  0  0
 13  1  1  0  0  0  0
 14 13  1  0  0  0  0
 15 14  1  0  0  0  0
 15 16  1  0  0  0  0
 16 18  1  6  0  0  0
 16 17  1  0  0  0  0
 19 18  1  0  0  0  0
 20 19  1  0  0  0  0
 21 19  1  0  0  0  0
 22 19  1  0  0  0  0
M  END
>  <MODEL>
5

>  <REMARK>
  Name = ZINC50246681
                            x       y       z     vdW  Elec       q    Type
                         _______ _______ _______ _____ _____    ______ ____

>  <TORSDO>
F 4

>  <minimizedAffinity>
-6.8618759542614134

$$$$
ZINC50246681
 OpenBabel10211214013D

 22 23  0  0  1  0  0  0  0  0999 V2000
   52.1810   53.3230   19.6100 S   0  0  0  0  0  0  0  0  0  0  0  0
   53.2770   53.5000   18.7230 O   0  0  0  0  0  0  0  0  0  0  0  0
   52.1460   52.2840   20.5790 O   0  0  0  0  0  0  0  0  0  0  0  0
   49.7860   54.0890   18.5680 C   0  0  0  0  0  0  0  0  0  0  0  0
   50.7480   53.1230   18.6050 C   0  0  2  0  0  0  0  0  0  0  0  0
   50.5750   51.9640   17.8270 C   0  0  0  0  0  0  0  0  0  0  0  0
   49.4630   51.8500   17.0710 N   0  0  0  0  0  0  0  0  0  0  0  0
   48.5390   52.8460   17.0750 C   0  0  0  0  0  0  0  0  0  0  0  0
   47.4310   52.7250   16.3160 O   0  0  0  0  0  0  0  0  0  0  0  0
   49.3230   51.0600   16.5260 H   0  0  0  0  0  0  0  0  0  0  0  0
   51.4150   51.0790   17.8340 O   0  0  0  0  0  0  0  0  0  0  0  0
   48.7060   53.9270   17.8050 N   0  0  0  0  0  0  0  0  0  0  0  0
   52.0050   54.7470   20.4350 N   0  0  0  0  0  0  0  0  0  0  0  0
   51.3330   54.9090   21.7370 C   0  0  0  0  0  0  0  0  0  0  0  0
   51.9520   56.1900   22.3480 C   0  0  0  0  0  0  0  0  0  0  0  0
   52.1280   57.0810   21.0890 C   0  0  2  0  0  0  0  0  0  0  0  0
   52.5000   56.0600   19.9940 C   0  0  0  0  0  0  0  0  0  0  0  0
   53.2580   58.0920   21.2950 C   0  0  0  0  0  0  0  0  0  0  0  0
   52.8350   59.1090   22.2660 N   0  0  0  0  0  0  0  0  0  0  0  0
   53.4390   59.0760   23.0740 H   0  0  0  0  0  0  0  0  0  0  0  0
   51.8840   58.9290   22.5500 H   0  0  0  0  0  0  0  0  0  0  0  0
   52.8920   60.0230   21.8430 H   0  0  0  0  0  0  0  0  0  0  0  0
  1 13  1  0  0  0  0
  1  3  2  0  0  0  0
  2  1  2  0  0  0  0
  4  5  1  0  0  0  0
  5  1  1  1  0  0  0
  6 11  2  0  0  0  0
  6  5  1  0  0  0  0
  7  8  1  0  0  0  0
  7  6  1  0  0  0  0
  8 12  1  0  0  0  0
  9  8  2  0  0  0  0
 10  7  1  0  0  0  0
 12  4  2  0  0  0  0
 13 14  1  0  0  0  0
 14 15  1  0  0  0  0
 16 18  1  1  0  0  0
 16 15  1  0  0  0  0
 17 13  1  0  0  0  0
 17 16  1  0  0  0  0
 18 19  1  0  0  0  0
 19 21  1  0  0  0  0
 19 20  1  0  0  0  0
 22 19  1  0  0  0  0
M  END
>  <MODEL>
6

>  <REMARK>
  Name = ZINC50246681
                            x       y       z     vdW  Elec       q    Type
                         _______ _______ _______ _____ _____    ______ ____

>  <TORSDO>
F 4

>  <minimizedAffinity>
-6.6835431536962151

$$$$
ZINC50246681
 OpenBabel10211214013D

 22 23  0  0  1  0  0  0  0  0999 V2000
   51.5440   52.0750   20.4740 S   0  0  0  0  0  0  0  0  0  0  0  0
   50.9630   51.5170   21.6440 O   0  0  0  0  0  0  0  0  0  0  0  0
   52.7370   51.5600   19.8950 O   0  0  0  0  0  0  0  0  0  0  0  0
   51.6180   54.2790   22.0700 C   0  0  0  0  0  0  0  0  0  0  0  0
   51.8470   53.7750   20.8230 C   0  0  1  0  0  0  0  0  0  0  0  0
   52.3300   54.6370   19.8220 C   0  0  0  0  0  0  0  0  0  0  0  0
   52.5490   55.9320   20.1310 N   0  0  0  0  0  0  0  0  0  0  0  0
   52.3020   56.3770   21.3900 C   0  0  0  0  0  0  0  0  0  0  0  0
   52.5240   57.6720   21.6910 O   0  0  0  0  0  0  0  0  0  0  0  0
   52.8820   56.5440   19.4560 H   0  0  0  0  0  0  0  0  0  0  0  0
   52.5470   54.2210   18.6950 O   0  0  0  0  0  0  0  0  0  0  0  0
   51.8510   55.5660   22.3230 N   0  0  0  0  0  0  0  0  0  0  0  0
   50.3830   52.0170   19.2950 N   0  0  0  0  0  0  0  0  0  0  0  0
   49.4240   53.0910   18.9790 C   0  0  0  0  0  0  0  0  0  0  0  0
   49.0220   52.8430   17.5040 C   0  0  0  0  0  0  0  0  0  0  0  0
   48.9850   51.2920   17.4480 C   0  0  2  0  0  0  0  0  0  0  0  0
   50.1410   50.8870   18.3850 C   0  0  0  0  0  0  0  0  0  0  0  0
   49.2410   50.7960   16.0240 C   0  0  0  0  0  0  0  0  0  0  0  0
   50.6340   50.3460   15.9050 N   0  0  0  0  0  0  0  0  0  0  0  0
   50.9980   50.6100   15.0010 H   0  0  0  0  0  0  0  0  0  0  0  0
   50.6740   49.3430   16.0040 H   0  0  0  0  0  0  0  0  0  0  0  0
   51.1900   50.7770   16.6290 H   0  0  0  0  0  0  0  0  0  0  0  0
  1  2  2  0  0  0  0
  3  1  2  0  0  0  0
  4 12  2  0  0  0  0
  5  1  1  1  0  0  0
  5  4  1  0  0  0  0
  6  7  1  0  0  0  0
  6  5  1  0  0  0  0
  7  8  1  0  0  0  0
  8  9  2  0  0  0  0
  8 12  1  0  0  0  0
 10  7  1  0  0  0  0
 11  6  2  0  0  0  0
 13  1  1  0  0  0  0
 14 13  1  0  0  0  0
 15 14  1  0  0  0  0
 16 18  1  6  0  0  0
 16 15  1  0  0  0  0
 16 17  1  0  0  0  0
 17 13  1  0  0  0  0
 19 21  1  0  0  0  0
 19 18  1  0  0  0  0
 19 22  1  0  0  0  0
 20 19  1  0  0  0  0
M  END
>  <MODEL>
7

>  <REMARK>
  Name = ZINC50246681
                            x       y       z     vdW  Elec       q    Type
                         _______ _______ _______ _____ _____    ______ ____

>  <TORSDO>
F 4

>  <minimizedAffinity>
-6.5198487696027225

$$$$
ZINC50246681
 OpenBabel10211214013D

 22 23  0  0  1  0  0  0  0  0999 V2000
   49.2310   50.7370   16.4300 S   0  0  0  0  0  0  0  0  0  0  0  0
   48.5120   51.8810   15.9890 O   0  0  0  0  0  0  0  0  0  0  0  0
   50.0430   49.9640   15.5560 O   0  0  0  0  0  0  0  0  0  0  0  0
   48.0450   49.3700   18.4630 C   0  0  0  0  0  0  0  0  0  0  0  0
   48.0460   49.6340   17.1250 C   0  0  2  0  0  0  0  0  0  0  0  0
   47.0850   49.0100   16.3090 C   0  0  0  0  0  0  0  0  0  0  0  0
   46.1940   48.1720   16.8810 N   0  0  0  0  0  0  0  0  0  0  0  0
   46.2420   47.9480   18.2200 C   0  0  0  0  0  0  0  0  0  0  0  0
   45.3490   47.1090   18.7830 O   0  0  0  0  0  0  0  0  0  0  0  0
   45.5230   47.7310   16.3380 H   0  0  0  0  0  0  0  0  0  0  0  0
   47.0550   49.2230   15.1080 O   0  0  0  0  0  0  0  0  0  0  0  0
   47.1440   48.5340   18.9770 N   0  0  0  0  0  0  0  0  0  0  0  0
   50.2120   51.2420   17.6640 N   0  0  0  0  0  0  0  0  0  0  0  0
   49.9830   52.4230   18.5170 C   0  0  0  0  0  0  0  0  0  0  0  0
   50.7530   52.1220   19.8260 C   0  0  0  0  0  0  0  0  0  0  0  0
   52.0110   51.3900   19.2870 C   0  0  2  0  0  0  0  0  0  0  0  0
   51.4550   50.5840   18.0950 C   0  0  0  0  0  0  0  0  0  0  0  0
   52.5920   50.4560   20.3500 C   0  0  0  0  0  0  0  0  0  0  0  0
   52.8140   49.1270   19.7660 N   0  0  0  0  0  0  0  0  0  0  0  0
   52.9590   48.4540   20.5040 H   0  0  0  0  0  0  0  0  0  0  0  0
   53.6280   49.1530   19.1700 H   0  0  0  0  0  0  0  0  0  0  0  0
   52.0080   48.8590   19.2220 H   0  0  0  0  0  0  0  0  0  0  0  0
  1 13  1  0  0  0  0
  2  1  2  0  0  0  0
  3  1  2  0  0  0  0
  4 12  2  0  0  0  0
  5  1  1  6  0  0  0
  5  4  1  0  0  0  0
  6  7  1  0  0  0  0
  6  5  1  0  0  0  0
  7  8  1  0  0  0  0
  8  9  2  0  0  0  0
  8 12  1  0  0  0  0
 10  7  1  0  0  0  0
 11  6  2  0  0  0  0
 13 17  1  0  0  0  0
 13 14  1  0  0  0  0
 14 15  1  0  0  0  0
 16 15  1  0  0  0  0
 16 18  1  1  0  0  0
 17 16  1  0  0  0  0
 19 18  1  0  0  0  0
 19 20  1  0  0  0  0
 21 19  1  0  0  0  0
 22 19  1  0  0  0  0
M  END
>  <MODEL>
8

>  <REMARK>
  Name = ZINC50246681
                            x       y       z     vdW  Elec       q    Type
                         _______ _______ _______ _____ _____    ______ ____

>  <TORSDO>
F 4

>  <minimizedAffinity>
-6.5063215198926594

$$$$
ZINC50246681
 OpenBabel10211214013D

 22 23  0  0  1  0  0  0  0  0999 V2000
   52.6150   52.3530   19.5430 S   0  0  0  0  0  0  0  0  0  0  0  0
   53.5590   53.0570   18.7490 O   0  0  0  0  0  0  0  0  0  0  0  0
   52.9780   51.2450   20.3570 O   0  0  0  0  0  0  0  0  0  0  0  0
   50.0540   52.1180   18.6510 C   0  0  0  0  0  0  0  0  0  0  0  0
   51.3590   51.7820   18.4460 C   0  0  2  0  0  0  0  0  0  0  0  0
   51.6870   50.9710   17.3440 C   0  0  0  0  0  0  0  0  0  0  0  0
   50.6950   50.5560   16.5280 N   0  0  0  0  0  0  0  0  0  0  0  0
   49.4130   50.9230   16.7820 C   0  0  0  0  0  0  0  0  0  0  0  0
   48.4280   50.5030   15.9620 O   0  0  0  0  0  0  0  0  0  0  0  0
   50.8980   49.9960   15.7620 H   0  0  0  0  0  0  0  0  0  0  0  0
   52.8440   50.6510   17.1300 O   0  0  0  0  0  0  0  0  0  0  0  0
   49.1130   51.6810   17.8150 N   0  0  0  0  0  0  0  0  0  0  0  0
   51.9160   53.4680   20.5480 N   0  0  0  0  0  0  0  0  0  0  0  0
   51.5430   53.2430   21.9560 C   0  0  0  0  0  0  0  0  0  0  0  0
   51.5370   54.6530   22.5960 C   0  0  0  0  0  0  0  0  0  0  0  0
   50.9690   55.5180   21.4390 C   0  0  2  0  0  0  0  0  0  0  0  0
   51.5700   54.8510   20.1840 C   0  0  0  0  0  0  0  0  0  0  0  0
   51.4430   56.9670   21.5630 C   0  0  0  0  0  0  0  0  0  0  0  0
   52.9020   57.0210   21.4020 N   0  0  0  0  0  0  0  0  0  0  0  0
   53.1320   57.5770   20.5920 H   0  0  0  0  0  0  0  0  0  0  0  0
   53.2620   56.0860   21.2810 H   0  0  0  0  0  0  0  0  0  0  0  0
   53.3160   57.4360   22.2230 H   0  0  0  0  0  0  0  0  0  0  0  0
  1  3  2  0  0  0  0
  1 13  1  0  0  0  0
  2  1  2  0  0  0  0
  5  4  1  0  0  0  0
  5  1  1  1  0  0  0
  6  5  1  0  0  0  0
  7  8  1  0  0  0  0
  7  6  1  0  0  0  0
  8 12  1  0  0  0  0
  9  8  2  0  0  0  0
 10  7  1  0  0  0  0
 11  6  2  0  0  0  0
 12  4  2  0  0  0  0
 13 14  1  0  0  0  0
 14 15  1  0  0  0  0
 16 18  1  1  0  0  0
 16 15  1  0  0  0  0
 17 13  1  0  0  0  0
 17 16  1  0  0  0  0
 19 18  1  0  0  0  0
 19 22  1  0  0  0  0
 20 19  1  0  0  0  0
 21 19  1  0  0  0  0
M  END
>  <MODEL>
9

>  <REMARK>
  Name = ZINC50246681
                            x       y       z     vdW  Elec       q    Type
                         _______ _______ _______ _____ _____    ______ ____

>  <TORSDO>
F 4

>  <minimizedAffinity>
-6.4889289044433962

$$$$
ZINC40551211
 OpenBabel10211214023D

 23 25  0  0  1  0  0  0  0  0999 V2000
   48.5260   49.7050   18.3410 N   0  0  0  0  0  0  0  0  0  0  0  0
   48.1470   50.4910   17.9180 H   0  0  0  0  0  0  0  0  0  0  0  0
   49.6620   49.8080   19.0590 C   0  0  0  0  0  0  0  0  0  0  0  0
   50.2710   51.0030   19.1890 N   0  0  0  0  0  0  0  0  0  0  0  0
   49.8030   52.2730   18.6080 C   0  0  0  0  0  0  0  0  0  0  0  0
   50.4210   53.3730   19.5070 C   0  0  1  0  0  0  0  0  0  0  0  0
   51.8120   52.7650   19.8310 C   0  0  0  0  0  0  0  0  0  0  0  0
   51.5090   51.2560   19.9410 C   0  0  2  0  0  0  0  0  0  0  0  0
   50.1380   48.8220   19.5900 O   0  0  0  0  0  0  0  0  0  0  0  0
   45.8590   49.5150   17.2300 C   0  0  0  0  0  0  0  0  0  0  0  0
   46.2200   48.8970   15.8770 C   0  0  0  0  0  0  0  0  0  0  0  0
   46.9130   47.6220   16.0770 N   0  0  2  0  0  0  0  0  0  0  0  0
   47.1360   47.2350   15.1720 H   0  0  0  0  0  0  0  0  0  0  0  0
   46.0480   46.6700   16.7770 C   0  0  0  0  0  0  0  0  0  0  0  0
   45.6800   47.2140   18.1600 C   0  0  0  0  0  0  0  0  0  0  0  0
   48.1620   47.8240   16.8160 C   0  0  0  0  0  0  0  0  0  0  0  0
   47.8640   48.4060   18.1990 C   0  0  2  0  0  0  0  0  0  0  0  0
   46.3470   48.5830   18.3460 C   0  0  1  0  0  0  0  0  0  0  0  0
   52.6430   50.4640   19.3420 C   0  0  0  0  0  0  0  0  0  0  0  0
   52.9020   50.5730   18.1550 O   0  0  0  0  0  0  0  0  0  0  0  0
   53.3010   49.7150   20.0430 O   0  0  0  0  0  0  0  0  0  0  0  0
   50.5530   54.6040   18.7940 O   0  0  0  0  0  0  0  0  0  0  0  0
   50.1370   54.5990   17.9210 H   0  0  0  0  0  0  0  0  0  0  0  0
  1  3  1  0  0  0  0
  2  1  1  0  0  0  0
  3  4  1  0  0  0  0
  3  9  2  0  0  0  0
  4  8  1  0  0  0  0
  5  4  1  0  0  0  0
  5  6  1  0  0  0  0
  6 22  1  6  0  0  0
  6  7  1  0  0  0  0
  7  8  1  0  0  0  0
  8 19  1  6  0  0  0
 11 12  1  0  0  0  0
 11 10  1  0  0  0  0
 12 13  1  6  0  0  0
 12 14  1  0  0  0  0
 12 16  1  0  0  0  0
 14 15  1  0  0  0  0
 15 18  1  0  0  0  0
 16 17  1  0  0  0  0
 17  1  1  6  0  0  0
 17 18  1  0  0  0  0
 18 10  1  6  0  0  0
 19 21  1  0  0  0  0
 20 19  2  0  0  0  0
 23 22  1  0  0  0  0
M  END
>  <MODEL>
1

>  <REMARK>
  Name = ZINC40551211
                            x       y       z     vdW  Elec       q    Type
                         _______ _______ _______ _____ _____    ______ ____

>  <TORSDO>
F 3

>  <minimizedAffinity>
-7.581994509373712

$$$$
ZINC40551211
 OpenBabel10211214023D

 23 25  0  0  1  0  0  0  0  0999 V2000
   50.6280   53.1090   20.6470 N   0  0  0  0  0  0  0  0  0  0  0  0
   49.8820   53.2030   20.0350 H   0  0  0  0  0  0  0  0  0  0  0  0
   51.0750   54.1780   21.3350 C   0  0  0  0  0  0  0  0  0  0  0  0
   50.4850   55.3780   21.1720 N   0  0  0  0  0  0  0  0  0  0  0  0
   49.3440   55.6610   20.2840 C   0  0  0  0  0  0  0  0  0  0  0  0
   48.6710   56.9190   20.8890 C   0  0  1  0  0  0  0  0  0  0  0  0
   49.9030   57.7260   21.3770 C   0  0  0  0  0  0  0  0  0  0  0  0
   50.8690   56.6220   21.8560 C   0  0  2  0  0  0  0  0  0  0  0  0
   52.0100   54.0590   22.1030 O   0  0  0  0  0  0  0  0  0  0  0  0
   50.2020   50.9770   18.7340 C   0  0  0  0  0  0  0  0  0  0  0  0
   51.5830   50.9860   18.0730 C   0  0  0  0  0  0  0  0  0  0  0  0
   52.6210   50.7370   19.0750 N   0  0  2  0  0  0  0  0  0  0  0  0
   53.5180   50.7440   18.6140 H   0  0  0  0  0  0  0  0  0  0  0  0
   52.4380   49.4200   19.6890 C   0  0  0  0  0  0  0  0  0  0  0  0
   51.0860   49.3570   20.4040 C   0  0  0  0  0  0  0  0  0  0  0  0
   52.6150   51.7880   20.0960 C   0  0  0  0  0  0  0  0  0  0  0  0
   51.2690   51.8030   20.8240 C   0  0  2  0  0  0  0  0  0  0  0  0
   50.3740   50.7060   20.2340 C   0  0  1  0  0  0  0  0  0  0  0  0
   52.2850   56.9910   21.4930 C   0  0  0  0  0  0  0  0  0  0  0  0
   52.5750   57.2210   20.3310 O   0  0  0  0  0  0  0  0  0  0  0  0
   53.1390   57.0580   22.3600 O   0  0  0  0  0  0  0  0  0  0  0  0
   47.9460   57.6420   19.8920 O   0  0  0  0  0  0  0  0  0  0  0  0
   48.2700   58.5420   19.7470 H   0  0  0  0  0  0  0  0  0  0  0  0
  1  3  1  0  0  0  0
  2  1  1  0  0  0  0
  3  9  2  0  0  0  0
  4  3  1  0  0  0  0
  4  8  1  0  0  0  0
  5  6  1  0  0  0  0
  5  4  1  0  0  0  0
  6 22  1  6  0  0  0
  6  7  1  0  0  0  0
  7  8  1  0  0  0  0
  8 19  1  6  0  0  0
 11 10  1  0  0  0  0
 11 12  1  0  0  0  0
 12 13  1  6  0  0  0
 12 14  1  0  0  0  0
 12 16  1  0  0  0  0
 14 15  1  0  0  0  0
 16 17  1  0  0  0  0
 17  1  1  6  0  0  0
 18 10  1  6  0  0  0
 18 15  1  0  0  0  0
 18 17  1  0  0  0  0
 19 21  1  0  0  0  0
 20 19  2  0  0  0  0
 23 22  1  0  0  0  0
M  END
>  <MODEL>
2

>  <REMARK>
  Name = ZINC40551211
                            x       y       z     vdW  Elec       q    Type
                         _______ _______ _______ _____ _____    ______ ____

>  <TORSDO>
F 3

>  <minimizedAffinity>
-7.2976612920334629

$$$$
ZINC40551211
 OpenBabel10211214023D

 23 25  0  0  1  0  0  0  0  0999 V2000
   49.0190   50.2660   17.4990 N   0  0  0  0  0  0  0  0  0  0  0  0
   49.3500   49.5240   18.0300 H   0  0  0  0  0  0  0  0  0  0  0  0
   49.5550   51.4930   17.6470 C   0  0  0  0  0  0  0  0  0  0  0  0
   50.5500   51.6910   18.5340 N   0  0  0  0  0  0  0  0  0  0  0  0
   51.1500   50.6580   19.3970 C   0  0  0  0  0  0  0  0  0  0  0  0
   52.5680   51.1890   19.7260 C   0  0  1  0  0  0  0  0  0  0  0  0
   52.3050   52.7120   19.8640 C   0  0  0  0  0  0  0  0  0  0  0  0
   51.2230   52.9720   18.7950 C   0  0  2  0  0  0  0  0  0  0  0  0
   49.1410   52.4220   16.9810 O   0  0  0  0  0  0  0  0  0  0  0  0
   48.2580   47.5880   16.7000 C   0  0  0  0  0  0  0  0  0  0  0  0
   46.9200   47.5030   17.4370 C   0  0  0  0  0  0  0  0  0  0  0  0
   46.0290   48.5740   16.9850 N   0  0  2  0  0  0  0  0  0  0  0  0
   45.1540   48.4930   17.4830 H   0  0  0  0  0  0  0  0  0  0  0  0
   45.7490   48.4420   15.5540 C   0  0  0  0  0  0  0  0  0  0  0  0
   47.0480   48.5580   14.7530 C   0  0  0  0  0  0  0  0  0  0  0  0
   46.6100   49.8860   17.2790 C   0  0  0  0  0  0  0  0  0  0  0  0
   47.9370   50.0500   16.5350 C   0  0  2  0  0  0  0  0  0  0  0  0
   48.2130   48.7750   15.7280 C   0  0  1  0  0  0  0  0  0  0  0  0
   50.2260   53.9770   19.3140 C   0  0  0  0  0  0  0  0  0  0  0  0
   49.6490   53.7740   20.3690 O   0  0  0  0  0  0  0  0  0  0  0  0
   49.9970   54.9920   18.6790 O   0  0  0  0  0  0  0  0  0  0  0  0
   53.0500   50.6380   20.9530 O   0  0  0  0  0  0  0  0  0  0  0  0
   53.9900   50.4120   20.9400 H   0  0  0  0  0  0  0  0  0  0  0  0
  1  3  1  0  0  0  0
  1  2  1  0  0  0  0
  3  4  1  0  0  0  0
  4  8  1  0  0  0  0
  4  5  1  0  0  0  0
  5  6  1  0  0  0  0
  6  7  1  0  0  0  0
  6 22  1  1  0  0  0
  8 19  1  1  0  0  0
  8  7  1  0  0  0  0
  9  3  2  0  0  0  0
 10 11  1  0  0  0  0
 12 16  1  0  0  0  0
 12 11  1  0  0  0  0
 12 13  1  1  0  0  0
 14 12  1  0  0  0  0
 15 14  1  0  0  0  0
 17 16  1  0  0  0  0
 17  1  1  1  0  0  0
 18 15  1  1  0  0  0
 18 17  1  0  0  0  0
 18 10  1  0  0  0  0
 19 20  1  0  0  0  0
 21 19  2  0  0  0  0
 23 22  1  0  0  0  0
M  END
>  <MODEL>
3

>  <REMARK>
  Name = ZINC40551211
                            x       y       z     vdW  Elec       q    Type
                         _______ _______ _______ _____ _____    ______ ____

>  <TORSDO>
F 3

>  <minimizedAffinity>
-7.2967831686228104

$$$$
ZINC40551211
 OpenBabel10211214023D

 23 25  0  0  1  0  0  0  0  0999 V2000
   51.4760   54.1400   19.9590 N   0  0  0  0  0  0  0  0  0  0  0  0
   52.4100   53.9600   20.1460 H   0  0  0  0  0  0  0  0  0  0  0  0
   50.6370   53.1230   19.6790 C   0  0  0  0  0  0  0  0  0  0  0  0
   51.0970   51.8560   19.6580 N   0  0  0  0  0  0  0  0  0  0  0  0
   52.4850   51.4420   19.9280 C   0  0  0  0  0  0  0  0  0  0  0  0
   52.3770   49.9680   20.3910 C   0  0  1  0  0  0  0  0  0  0  0  0
   51.2350   49.4400   19.4830 C   0  0  0  0  0  0  0  0  0  0  0  0
   50.2950   50.6580   19.3690 C   0  0  2  0  0  0  0  0  0  0  0  0
   49.4650   53.3480   19.4450 O   0  0  0  0  0  0  0  0  0  0  0  0
   51.6240   55.7300   22.3740 C   0  0  0  0  0  0  0  0  0  0  0  0
   52.7360   56.6900   21.9470 C   0  0  0  0  0  0  0  0  0  0  0  0
   52.3380   57.4140   20.7370 N   0  0  2  0  0  0  0  0  0  0  0  0
   53.0860   58.0410   20.4790 H   0  0  0  0  0  0  0  0  0  0  0  0
   51.1400   58.2170   20.9900 C   0  0  0  0  0  0  0  0  0  0  0  0
   49.9730   57.3090   21.3860 C   0  0  0  0  0  0  0  0  0  0  0  0
   52.1110   56.4820   19.6300 C   0  0  0  0  0  0  0  0  0  0  0  0
   50.9760   55.5170   19.9820 C   0  0  2  0  0  0  0  0  0  0  0  0
   50.4570   55.8530   21.3850 C   0  0  1  0  0  0  0  0  0  0  0  0
   49.7350   50.7410   17.9720 C   0  0  0  0  0  0  0  0  0  0  0  0
   48.5290   50.7240   17.7970 O   0  0  0  0  0  0  0  0  0  0  0  0
   50.4890   50.8260   17.0170 O   0  0  0  0  0  0  0  0  0  0  0  0
   53.5950   49.2620   20.1450 O   0  0  0  0  0  0  0  0  0  0  0  0
   54.3860   49.7220   20.4600 H   0  0  0  0  0  0  0  0  0  0  0  0
  1  2  1  0  0  0  0
  3  1  1  0  0  0  0
  4  3  1  0  0  0  0
  4  5  1  0  0  0  0
  5  6  1  0  0  0  0
  6 22  1  6  0  0  0
  7  6  1  0  0  0  0
  8 19  1  6  0  0  0
  8  7  1  0  0  0  0
  8  4  1  0  0  0  0
  9  3  2  0  0  0  0
 11 10  1  0  0  0  0
 12 13  1  6  0  0  0
 12 14  1  0  0  0  0
 12 11  1  0  0  0  0
 14 15  1  0  0  0  0
 16 17  1  0  0  0  0
 16 12  1  0  0  0  0
 17  1  1  1  0  0  0
 17 18  1  0  0  0  0
 18 15  1  6  0  0  0
 18 10  1  0  0  0  0
 20 19  1  0  0  0  0
 21 19  2  0  0  0  0
 22 23  1  0  0  0  0
M  END
>  <MODEL>
4

>  <REMARK>
  Name = ZINC40551211
                            x       y       z     vdW  Elec       q    Type
                         _______ _______ _______ _____ _____    ______ ____

>  <TORSDO>
F 3

>  <minimizedAffinity>
-7.1678674207411195

$$$$
ZINC40551211
 OpenBabel10211214023D

 23 25  0  0  1  0  0  0  0  0999 V2000
   51.1810   53.8850   21.1630 N   0  0  0  0  0  0  0  0  0  0  0  0
   51.9370   53.8680   21.7710 H   0  0  0  0  0  0  0  0  0  0  0  0
   50.7480   55.0580   20.6590 C   0  0  0  0  0  0  0  0  0  0  0  0
   51.3650   56.2060   21.0000 N   0  0  0  0  0  0  0  0  0  0  0  0
   52.5220   56.3240   21.9040 C   0  0  0  0  0  0  0  0  0  0  0  0
   53.2130   57.6480   21.4950 C   0  0  1  0  0  0  0  0  0  0  0  0
   51.9920   58.5450   21.1580 C   0  0  0  0  0  0  0  0  0  0  0  0
   50.9980   57.5490   20.5260 C   0  0  2  0  0  0  0  0  0  0  0  0
   49.8010   55.0790   19.8970 O   0  0  0  0  0  0  0  0  0  0  0  0
   52.5280   51.9070   19.5330 C   0  0  0  0  0  0  0  0  0  0  0  0
   52.7730   50.8510   20.6130 C   0  0  0  0  0  0  0  0  0  0  0  0
   51.4980   50.4260   21.1960 N   0  0  2  0  0  0  0  0  0  0  0  0
   51.6870   49.7290   21.9010 H   0  0  0  0  0  0  0  0  0  0  0  0
   50.6410   49.8190   20.1760 C   0  0  0  0  0  0  0  0  0  0  0  0
   50.3260   50.8400   19.0800 C   0  0  0  0  0  0  0  0  0  0  0  0
   50.8200   51.5580   21.8330 C   0  0  0  0  0  0  0  0  0  0  0  0
   50.5110   52.6360   20.7930 C   0  0  2  0  0  0  0  0  0  0  0  0
   51.0200   52.1650   19.4250 C   0  0  1  0  0  0  0  0  0  0  0  0
   49.5950   57.8820   20.9650 C   0  0  0  0  0  0  0  0  0  0  0  0
   48.7400   58.1330   20.1330 O   0  0  0  0  0  0  0  0  0  0  0  0
   49.3160   57.9000   22.1520 O   0  0  0  0  0  0  0  0  0  0  0  0
   53.9650   58.1920   22.5810 O   0  0  0  0  0  0  0  0  0  0  0  0
   54.5670   58.9050   22.3250 H   0  0  0  0  0  0  0  0  0  0  0  0
  1  2  1  0  0  0  0
  3  4  1  0  0  0  0
  3  1  1  0  0  0  0
  4  5  1  0  0  0  0
  6  5  1  0  0  0  0
  6 22  1  1  0  0  0
  7  6  1  0  0  0  0
  8 19  1  1  0  0  0
  8  4  1  0  0  0  0
  8  7  1  0  0  0  0
  9  3  2  0  0  0  0
 10 11  1  0  0  0  0
 11 12  1  0  0  0  0
 12 16  1  0  0  0  0
 12 13  1  1  0  0  0
 14 12  1  0  0  0  0
 15 14  1  0  0  0  0
 17  1  1  1  0  0  0
 17 16  1  0  0  0  0
 18 15  1  1  0  0  0
 18 10  1  0  0  0  0
 18 17  1  0  0  0  0
 19 21  1  0  0  0  0
 20 19  2  0  0  0  0
 23 22  1  0  0  0  0
M  END
>  <MODEL>
5

>  <REMARK>
  Name = ZINC40551211
                            x       y       z     vdW  Elec       q    Type
                         _______ _______ _______ _____ _____    ______ ____

>  <TORSDO>
F 3

>  <minimizedAffinity>
-6.7707212460579473

$$$$
ZINC40551211
 OpenBabel10211214023D

 23 25  0  0  1  0  0  0  0  0999 V2000
   48.6140   50.2160   18.0910 N   0  0  0  0  0  0  0  0  0  0  0  0
   48.6000   49.7200   18.9240 H   0  0  0  0  0  0  0  0  0  0  0  0
   47.6630   50.0000   17.1610 C   0  0  0  0  0  0  0  0  0  0  0  0
   46.6930   49.0920   17.3870 N   0  0  0  0  0  0  0  0  0  0  0  0
   46.5490   48.2750   18.6050 C   0  0  0  0  0  0  0  0  0  0  0  0
   45.0460   47.9030   18.6580 C   0  0  1  0  0  0  0  0  0  0  0  0
   44.7250   47.6910   17.1540 C   0  0  0  0  0  0  0  0  0  0  0  0
   45.6000   48.7580   16.4630 C   0  0  2  0  0  0  0  0  0  0  0  0
   47.6810   50.6230   16.1170 O   0  0  0  0  0  0  0  0  0  0  0  0
   50.6440   50.7440   20.0880 C   0  0  0  0  0  0  0  0  0  0  0  0
   51.8280   50.0710   19.3910 C   0  0  0  0  0  0  0  0  0  0  0  0
   52.0560   50.6850   18.0810 N   0  0  2  0  0  0  0  0  0  0  0  0
   52.8420   50.2260   17.6460 H   0  0  0  0  0  0  0  0  0  0  0  0
   52.3850   52.1040   18.2290 C   0  0  0  0  0  0  0  0  0  0  0  0
   51.2190   52.8470   18.8870 C   0  0  0  0  0  0  0  0  0  0  0  0
   50.8830   50.5130   17.2200 C   0  0  0  0  0  0  0  0  0  0  0  0
   49.6690   51.2030   17.8450 C   0  0  2  0  0  0  0  0  0  0  0  0
   50.0930   51.8450   19.1720 C   0  0  1  0  0  0  0  0  0  0  0  0
   46.1640   48.2020   15.1810 C   0  0  0  0  0  0  0  0  0  0  0  0
   45.6780   48.5240   14.1100 O   0  0  0  0  0  0  0  0  0  0  0  0
   47.1070   47.4300   15.2150 O   0  0  0  0  0  0  0  0  0  0  0  0
   44.8420   46.6990   19.4000 O   0  0  0  0  0  0  0  0  0  0  0  0
   44.8250   45.9000   18.8560 H   0  0  0  0  0  0  0  0  0  0  0  0
  1  2  1  0  0  0  0
  3  4  1  0  0  0  0
  3  1  1  0  0  0  0
  4  5  1  0  0  0  0
  5  6  1  0  0  0  0
  6 22  1  6  0  0  0
  7  6  1  0  0  0  0
  8 19  1  1  0  0  0
  8  7  1  0  0  0  0
  8  4  1  0  0  0  0
  9  3  2  0  0  0  0
 11 10  1  0  0  0  0
 12 13  1  6  0  0  0
 12 14  1  0  0  0  0
 12 11  1  0  0  0  0
 14 15  1  0  0  0  0
 16 17  1  0  0  0  0
 16 12  1  0  0  0  0
 17  1  1  1  0  0  0
 17 18  1  0  0  0  0
 18 15  1  6  0  0  0
 18 10  1  0  0  0  0
 19 21  1  0  0  0  0
 20 19  2  0  0  0  0
 23 22  1  0  0  0  0
M  END
>  <MODEL>
6

>  <REMARK>
  Name = ZINC40551211
                            x       y       z     vdW  Elec       q    Type
                         _______ _______ _______ _____ _____    ______ ____

>  <TORSDO>
F 3

>  <minimizedAffinity>
-6.7183584816171118

$$$$
ZINC40551211
 OpenBabel10211214023D

 23 25  0  0  1  0  0  0  0  0999 V2000
   49.5470   51.0990   18.2860 N   0  0  0  0  0  0  0  0  0  0  0  0
   49.4240   50.6290   19.1260 H   0  0  0  0  0  0  0  0  0  0  0  0
   48.7750   50.7940   17.2240 C   0  0  0  0  0  0  0  0  0  0  0  0
   47.8330   49.8360   17.3290 N   0  0  0  0  0  0  0  0  0  0  0  0
   47.5360   49.0510   18.5400 C   0  0  0  0  0  0  0  0  0  0  0  0
   46.0690   48.5890   18.3640 C   0  0  1  0  0  0  0  0  0  0  0  0
   46.0110   48.3100   16.8390 C   0  0  0  0  0  0  0  0  0  0  0  0
   46.9260   49.4060   16.2540 C   0  0  2  0  0  0  0  0  0  0  0  0
   48.9290   51.3840   16.1720 O   0  0  0  0  0  0  0  0  0  0  0  0
   50.6760   52.3290   20.6520 C   0  0  0  0  0  0  0  0  0  0  0  0
   52.0640   51.6850   20.6020 C   0  0  0  0  0  0  0  0  0  0  0  0
   52.7270   52.0180   19.3400 N   0  0  2  0  0  0  0  0  0  0  0  0
   53.6390   51.5850   19.3340 H   0  0  0  0  0  0  0  0  0  0  0  0
   52.9120   53.4660   19.2210 C   0  0  0  0  0  0  0  0  0  0  0  0
   51.5530   54.1700   19.2250 C   0  0  0  0  0  0  0  0  0  0  0  0
   51.9610   51.5000   18.2030 C   0  0  0  0  0  0  0  0  0  0  0  0
   50.5710   52.1400   18.1730 C   0  0  2  0  0  0  0  0  0  0  0  0
   50.4490   53.1130   19.3530 C   0  0  1  0  0  0  0  0  0  0  0  0
   47.7230   48.8450   15.1050 C   0  0  0  0  0  0  0  0  0  0  0  0
   48.6120   48.0370   15.3170 O   0  0  0  0  0  0  0  0  0  0  0  0
   47.4790   49.1980   13.9640 O   0  0  0  0  0  0  0  0  0  0  0  0
   45.8130   47.3990   19.1130 O   0  0  0  0  0  0  0  0  0  0  0  0
   46.1550   46.5940   18.7010 H   0  0  0  0  0  0  0  0  0  0  0  0
  1  2  1  0  0  0  0
  3  4  1  0  0  0  0
  3  1  1  0  0  0  0
  4  5  1  0  0  0  0
  6  5  1  0  0  0  0
  6 22  1  6  0  0  0
  7  6  1  0  0  0  0
  8 19  1  1  0  0  0
  8  7  1  0  0  0  0
  8  4  1  0  0  0  0
  9  3  2  0  0  0  0
 11 10  1  0  0  0  0
 12 13  1  6  0  0  0
 12 11  1  0  0  0  0
 14 15  1  0  0  0  0
 14 12  1  0  0  0  0
 16 12  1  0  0  0  0
 17 16  1  0  0  0  0
 17  1  1  1  0  0  0
 17 18  1  0  0  0  0
 18 15  1  6  0  0  0
 18 10  1  0  0  0  0
 19 20  1  0  0  0  0
 21 19  2  0  0  0  0
 23 22  1  0  0  0  0
M  END
>  <MODEL>
7

>  <REMARK>
  Name = ZINC40551211
                            x       y       z     vdW  Elec       q    Type
                         _______ _______ _______ _____ _____    ______ ____

>  <TORSDO>
F 3

>  <minimizedAffinity>
-6.6769899120730827

$$$$
ZINC40551211
 OpenBabel10211214023D

 23 25  0  0  1  0  0  0  0  0999 V2000
   49.1960   50.9710   18.1360 N   0  0  0  0  0  0  0  0  0  0  0  0
   49.3750   50.3890   18.8910 H   0  0  0  0  0  0  0  0  0  0  0  0
   49.6180   52.2510   18.1570 C   0  0  0  0  0  0  0  0  0  0  0  0
   50.2880   52.7220   19.2270 N   0  0  0  0  0  0  0  0  0  0  0  0
   50.6310   51.9500   20.4340 C   0  0  0  0  0  0  0  0  0  0  0  0
   51.8610   52.6760   21.0330 C   0  0  1  0  0  0  0  0  0  0  0  0
   51.5160   54.1610   20.7470 C   0  0  0  0  0  0  0  0  0  0  0  0
   50.8030   54.0910   19.3800 C   0  0  2  0  0  0  0  0  0  0  0  0
   49.3940   52.9800   17.2100 O   0  0  0  0  0  0  0  0  0  0  0  0
   48.1120   48.2860   18.1330 C   0  0  0  0  0  0  0  0  0  0  0  0
   46.6280   48.6400   18.2560 C   0  0  0  0  0  0  0  0  0  0  0  0
   46.2200   49.4870   17.1330 N   0  0  2  0  0  0  0  0  0  0  0  0
   45.2390   49.7020   17.2360 H   0  0  0  0  0  0  0  0  0  0  0  0
   46.3970   48.7800   15.8630 C   0  0  0  0  0  0  0  0  0  0  0  0
   47.8730   48.4300   15.6600 C   0  0  0  0  0  0  0  0  0  0  0  0
   46.9730   50.7430   17.1350 C   0  0  0  0  0  0  0  0  0  0  0  0
   48.4680   50.4580   16.9730 C   0  0  2  0  0  0  0  0  0  0  0  0
   48.6730   48.9420   16.8650 C   0  0  1  0  0  0  0  0  0  0  0  0
   49.6620   55.0740   19.3500 C   0  0  0  0  0  0  0  0  0  0  0  0
   48.7170   54.9360   20.1090 O   0  0  0  0  0  0  0  0  0  0  0  0
   49.6820   56.0090   18.5670 O   0  0  0  0  0  0  0  0  0  0  0  0
   51.9650   52.4350   22.4380 O   0  0  0  0  0  0  0  0  0  0  0  0
   51.1130   52.3260   22.8820 H   0  0  0  0  0  0  0  0  0  0  0  0
  1  3  1  0  0  0  0
  1  2  1  0  0  0  0
  3  4  1  0  0  0  0
  4  8  1  0  0  0  0
  4  5  1  0  0  0  0
  5  6  1  0  0  0  0
  6 22  1  1  0  0  0
  7  6  1  0  0  0  0
  8 19  1  1  0  0  0
  8  7  1  0  0  0  0
  9  3  2  0  0  0  0
 10 11  1  0  0  0  0
 12 16  1  0  0  0  0
 12 13  1  1  0  0  0
 12 11  1  0  0  0  0
 14 12  1  0  0  0  0
 15 14  1  0  0  0  0
 17 16  1  0  0  0  0
 17  1  1  1  0  0  0
 18 15  1  1  0  0  0
 18 17  1  0  0  0  0
 18 10  1  0  0  0  0
 19 20  1  0  0  0  0
 21 19  2  0  0  0  0
 22 23  1  0  0  0  0
M  END
>  <MODEL>
8

>  <REMARK>
  Name = ZINC40551211
                            x       y       z     vdW  Elec       q    Type
                         _______ _______ _______ _____ _____    ______ ____

>  <TORSDO>
F 3

>  <minimizedAffinity>
-6.6716409206970004

$$$$
ZINC40551211
 OpenBabel10211214023D

 23 25  0  0  1  0  0  0  0  0999 V2000
   49.3980   50.1790   18.1820 N   0  0  0  0  0  0  0  0  0  0  0  0
   48.8100   50.3060   18.9430 H   0  0  0  0  0  0  0  0  0  0  0  0
   50.6540   50.6680   18.2110 C   0  0  0  0  0  0  0  0  0  0  0  0
   51.0910   51.3350   19.2970 N   0  0  0  0  0  0  0  0  0  0  0  0
   50.3100   51.5940   20.5200 C   0  0  0  0  0  0  0  0  0  0  0  0
   51.3680   51.7970   21.6320 C   0  0  1  0  0  0  0  0  0  0  0  0
   52.4840   52.5560   20.8660 C   0  0  0  0  0  0  0  0  0  0  0  0
   52.4310   51.9180   19.4620 C   0  0  2  0  0  0  0  0  0  0  0  0
   51.3910   50.5090   17.2580 O   0  0  0  0  0  0  0  0  0  0  0  0
   47.1520   48.3610   18.3660 C   0  0  0  0  0  0  0  0  0  0  0  0
   46.1140   49.2070   17.6250 C   0  0  0  0  0  0  0  0  0  0  0  0
   46.5800   49.4990   16.2680 N   0  0  2  0  0  0  0  0  0  0  0  0
   45.8770   50.0540   15.8020 H   0  0  0  0  0  0  0  0  0  0  0  0
   46.7590   48.2600   15.5070 C   0  0  0  0  0  0  0  0  0  0  0  0
   47.8180   47.3820   16.1770 C   0  0  0  0  0  0  0  0  0  0  0  0
   47.8270   50.2670   16.3060 C   0  0  0  0  0  0  0  0  0  0  0  0
   48.9210   49.4540   17.0010 C   0  0  2  0  0  0  0  0  0  0  0  0
   48.3380   48.1010   17.4280 C   0  0  1  0  0  0  0  0  0  0  0  0
   52.6620   52.9760   18.4130 C   0  0  0  0  0  0  0  0  0  0  0  0
   53.5230   52.8150   17.5650 O   0  0  0  0  0  0  0  0  0  0  0  0
   51.9870   53.9920   18.4130 O   0  0  0  0  0  0  0  0  0  0  0  0
   50.8450   52.5920   22.6980 O   0  0  0  0  0  0  0  0  0  0  0  0
   50.1080   52.1820   23.1700 H   0  0  0  0  0  0  0  0  0  0  0  0
  1  3  1  0  0  0  0
  1  2  1  0  0  0  0
  3  4  1  0  0  0  0
  4  8  1  0  0  0  0
  4  5  1  0  0  0  0
  5  6  1  0  0  0  0
  6 22  1  6  0  0  0
  7  6  1  0  0  0  0
  8 19  1  1  0  0  0
  8  7  1  0  0  0  0
  9  3  2  0  0  0  0
 11 10  1  0  0  0  0
 12 13  1  6  0  0  0
 12 16  1  0  0  0  0
 12 11  1  0  0  0  0
 14 15  1  0  0  0  0
 14 12  1  0  0  0  0
 16 17  1  0  0  0  0
 17 18  1  0  0  0  0
 17  1  1  1  0  0  0
 18 15  1  6  0  0  0
 18 10  1  0  0  0  0
 19 21  1  0  0  0  0
 20 19  2  0  0  0  0
 22 23  1  0  0  0  0
M  END
>  <MODEL>
9

>  <REMARK>
  Name = ZINC40551211
                            x       y       z     vdW  Elec       q    Type
                         _______ _______ _______ _____ _____    ______ ____

>  <TORSDO>
F 3

>  <minimizedAffinity>
-6.6545312879110394

$$$$
ZINC50392675
 OpenBabel10211214033D

 20 21  0  0  1  0  0  0  0  0999 V2000
   51.9400   52.7020   18.3700 S   0  0  0  0  0  0  0  0  0  0  0  0
   53.2240   52.4900   17.7990 O   0  0  0  0  0  0  0  0  0  0  0  0
   51.2950   53.9680   18.3430 O   0  0  0  0  0  0  0  0  0  0  0  0
   52.9320   49.8650   19.6960 C   0  0  0  0  0  0  0  0  0  0  0  0
   52.4810   51.0350   20.5310 C   0  0  0  0  0  0  0  0  0  0  0  0
   52.0580   52.2330   20.0640 C   0  0  0  0  0  0  0  0  0  0  0  0
   51.7330   53.0330   21.1640 C   0  0  0  0  0  0  0  0  0  0  0  0
   51.9510   52.3410   22.2530 N   0  0  0  0  0  0  0  0  0  0  0  0
   52.4190   51.0740   21.8790 N   0  0  0  0  0  0  0  0  0  0  0  0
   52.6580   50.3540   22.4820 H   0  0  0  0  0  0  0  0  0  0  0  0
   50.9120   51.6310   17.6360 N   0  0  0  0  0  0  0  0  0  0  0  0
   51.2520   51.0080   16.9750 H   0  0  0  0  0  0  0  0  0  0  0  0
   49.4890   51.6250   17.9850 C   0  0  1  0  0  0  0  0  0  0  0  0
   48.6800   52.2190   16.8290 C   0  0  0  0  0  0  0  0  0  0  0  0
   47.1920   51.9520   17.0930 C   0  0  0  0  0  0  0  0  0  0  0  0
   46.9380   50.4480   16.9880 C   0  0  0  0  0  0  0  0  0  0  0  0
   47.8910   49.7120   17.8090 N   0  0  0  0  0  0  0  0  0  0  0  0
   47.6710   48.7990   18.0540 H   0  0  0  0  0  0  0  0  0  0  0  0
   49.0460   50.2130   18.2440 C   0  0  0  0  0  0  0  0  0  0  0  0
   49.7780   49.4910   18.8870 O   0  0  0  0  0  0  0  0  0  0  0  0
  1  6  1  0  0  0  0
  2  1  2  0  0  0  0
  3  1  2  0  0  0  0
  4  5  1  0  0  0  0
  5  9  1  0  0  0  0
  6  5  2  0  0  0  0
  6  7  1  0  0  0  0
  7  8  2  0  0  0  0
  9  8  1  0  0  0  0
  9 10  1  0  0  0  0
 11  1  1  0  0  0  0
 12 11  1  0  0  0  0
 13 11  1  6  0  0  0
 13 19  1  0  0  0  0
 14 15  1  0  0  0  0
 14 13  1  0  0  0  0
 16 15  1  0  0  0  0
 16 17  1  0  0  0  0
 17 18  1  0  0  0  0
 17 19  1  0  0  0  0
 19 20  2  0  0  0  0
M  END
>  <MODEL>
1

>  <REMARK>
  Name = ZINC50392675
                            x       y       z     vdW  Elec       q    Type
                         _______ _______ _______ _____ _____    ______ ____

>  <TORSDO>
F 3

>  <minimizedAffinity>
-7.0138461683127389

$$$$
ZINC50392675
 OpenBabel10211214033D

 20 21  0  0  1  0  0  0  0  0999 V2000
   51.0930   53.7350   19.2040 S   0  0  0  0  0  0  0  0  0  0  0  0
   50.1670   53.2170   18.2590 O   0  0  0  0  0  0  0  0  0  0  0  0
   52.1530   54.6040   18.8330 O   0  0  0  0  0  0  0  0  0  0  0  0
   51.4560   53.0960   22.4060 C   0  0  0  0  0  0  0  0  0  0  0  0
   51.9430   52.1570   21.3320 C   0  0  0  0  0  0  0  0  0  0  0  0
   51.8330   52.3460   19.9970 C   0  0  0  0  0  0  0  0  0  0  0  0
   52.4100   51.2450   19.3570 C   0  0  0  0  0  0  0  0  0  0  0  0
   52.8520   50.4240   20.2750 N   0  0  0  0  0  0  0  0  0  0  0  0
   52.5730   50.9800   21.5310 N   0  0  0  0  0  0  0  0  0  0  0  0
   52.7920   50.5880   22.3890 H   0  0  0  0  0  0  0  0  0  0  0  0
   50.2030   54.5350   20.3490 N   0  0  0  0  0  0  0  0  0  0  0  0
   49.8380   54.0500   21.1060 H   0  0  0  0  0  0  0  0  0  0  0  0
   49.9640   55.9740   20.2170 C   0  0  1  0  0  0  0  0  0  0  0  0
   48.4570   56.2450   20.2520 C   0  0  0  0  0  0  0  0  0  0  0  0
   48.2410   57.7580   20.3910 C   0  0  0  0  0  0  0  0  0  0  0  0
   48.7290   58.1980   21.7720 C   0  0  0  0  0  0  0  0  0  0  0  0
   50.0780   57.7040   22.0170 N   0  0  0  0  0  0  0  0  0  0  0  0
   50.6020   58.1350   22.7110 H   0  0  0  0  0  0  0  0  0  0  0  0
   50.6380   56.6970   21.3480 C   0  0  0  0  0  0  0  0  0  0  0  0
   51.7540   56.3460   21.6690 O   0  0  0  0  0  0  0  0  0  0  0  0
  1  6  1  0  0  0  0
  1 11  1  0  0  0  0
  2  1  2  0  0  0  0
  3  1  2  0  0  0  0
  5  9  1  0  0  0  0
  5  4  1  0  0  0  0
  6  5  2  0  0  0  0
  7  6  1  0  0  0  0
  7  8  2  0  0  0  0
  8  9  1  0  0  0  0
  9 10  1  0  0  0  0
 11 12  1  0  0  0  0
 13 14  1  0  0  0  0
 13 11  1  1  0  0  0
 13 19  1  0  0  0  0
 14 15  1  0  0  0  0
 15 16  1  0  0  0  0
 16 17  1  0  0  0  0
 17 18  1  0  0  0  0
 19 20  2  0  0  0  0
 19 17  1  0  0  0  0
M  END
>  <MODEL>
2

>  <REMARK>
  Name = ZINC50392675
                            x       y       z     vdW  Elec       q    Type
                         _______ _______ _______ _____ _____    ______ ____

>  <TORSDO>
F 3

>  <minimizedAffinity>
-6.9680012577764066

$$$$
ZINC50392675
 OpenBabel10211214033D

 20 21  0  0  1  0  0  0  0  0999 V2000
   49.5390   55.3190   19.4590 S   0  0  0  0  0  0  0  0  0  0  0  0
   49.5760   56.4040   18.5420 O   0  0  0  0  0  0  0  0  0  0  0  0
   48.3250   54.8330   20.0150 O   0  0  0  0  0  0  0  0  0  0  0  0
   49.1850   57.7450   21.6450 C   0  0  0  0  0  0  0  0  0  0  0  0
   50.3520   56.7920   21.6760 C   0  0  0  0  0  0  0  0  0  0  0  0
   50.5700   55.7710   20.8150 C   0  0  0  0  0  0  0  0  0  0  0  0
   51.7580   55.1370   21.1920 C   0  0  0  0  0  0  0  0  0  0  0  0
   52.2370   55.7550   22.2410 N   0  0  0  0  0  0  0  0  0  0  0  0
   51.3680   56.8070   22.5620 N   0  0  0  0  0  0  0  0  0  0  0  0
   51.4790   57.4330   23.2940 H   0  0  0  0  0  0  0  0  0  0  0  0
   50.2600   54.0350   18.7030 N   0  0  0  0  0  0  0  0  0  0  0  0
   51.2090   54.0610   18.5010 H   0  0  0  0  0  0  0  0  0  0  0  0
   49.4660   52.8600   18.3360 C   0  0  1  0  0  0  0  0  0  0  0  0
   48.5270   53.2190   17.1820 C   0  0  0  0  0  0  0  0  0  0  0  0
   47.9120   51.9240   16.6360 C   0  0  0  0  0  0  0  0  0  0  0  0
   49.0160   51.1010   15.9720 C   0  0  0  0  0  0  0  0  0  0  0  0
   50.1560   50.9580   16.8690 N   0  0  0  0  0  0  0  0  0  0  0  0
   50.7870   50.2420   16.6930 H   0  0  0  0  0  0  0  0  0  0  0  0
   50.3850   51.7480   17.9170 C   0  0  0  0  0  0  0  0  0  0  0  0
   51.3900   51.5580   18.5680 O   0  0  0  0  0  0  0  0  0  0  0  0
  1  3  2  0  0  0  0
  1  6  1  0  0  0  0
  2  1  2  0  0  0  0
  4  5  1  0  0  0  0
  5  9  1  0  0  0  0
  6  7  1  0  0  0  0
  6  5  2  0  0  0  0
  7  8  2  0  0  0  0
  8  9  1  0  0  0  0
  9 10  1  0  0  0  0
 11  1  1  0  0  0  0
 12 11  1  0  0  0  0
 13 11  1  6  0  0  0
 14 13  1  0  0  0  0
 15 14  1  0  0  0  0
 16 15  1  0  0  0  0
 16 17  1  0  0  0  0
 17 19  1  0  0  0  0
 18 17  1  0  0  0  0
 19 13  1  0  0  0  0
 19 20  2  0  0  0  0
M  END
>  <MODEL>
3

>  <REMARK>
  Name = ZINC50392675
                            x       y       z     vdW  Elec       q    Type
                         _______ _______ _______ _____ _____    ______ ____

>  <TORSDO>
F 3

>  <minimizedAffinity>
-6.642678361795336

$$$$
ZINC50392675
 OpenBabel10211214033D

 20 21  0  0  1  0  0  0  0  0999 V2000
   51.6710   51.8270   21.0220 S   0  0  0  0  0  0  0  0  0  0  0  0
   52.7770   50.9980   21.3500 O   0  0  0  0  0  0  0  0  0  0  0  0
   50.5830   52.0320   21.9120 O   0  0  0  0  0  0  0  0  0  0  0  0
   50.3880   48.8670   20.4020 C   0  0  0  0  0  0  0  0  0  0  0  0
   50.4740   49.9470   19.3550 C   0  0  0  0  0  0  0  0  0  0  0  0
   50.9870   51.1870   19.5290 C   0  0  0  0  0  0  0  0  0  0  0  0
   50.8770   51.8730   18.3140 C   0  0  0  0  0  0  0  0  0  0  0  0
   50.3190   51.0730   17.4420 N   0  0  0  0  0  0  0  0  0  0  0  0
   50.0600   49.8490   18.0750 N   0  0  0  0  0  0  0  0  0  0  0  0
   49.6530   49.0710   17.6640 H   0  0  0  0  0  0  0  0  0  0  0  0
   52.2880   53.3240   20.6750 N   0  0  0  0  0  0  0  0  0  0  0  0
   53.1930   53.4090   20.3360 H   0  0  0  0  0  0  0  0  0  0  0  0
   51.4680   54.5200   20.8810 C   0  0  1  0  0  0  0  0  0  0  0  0
   51.7450   55.0940   22.2730 C   0  0  0  0  0  0  0  0  0  0  0  0
   51.0960   56.4810   22.3630 C   0  0  0  0  0  0  0  0  0  0  0  0
   51.8340   57.4300   21.4180 C   0  0  0  0  0  0  0  0  0  0  0  0
   51.9420   56.8420   20.0880 N   0  0  0  0  0  0  0  0  0  0  0  0
   52.1260   57.4350   19.3420 H   0  0  0  0  0  0  0  0  0  0  0  0
   51.8040   55.5420   19.8330 C   0  0  0  0  0  0  0  0  0  0  0  0
   51.9570   55.1640   18.6910 O   0  0  0  0  0  0  0  0  0  0  0  0
  1  2  2  0  0  0  0
  1  3  2  0  0  0  0
  5  6  2  0  0  0  0
  5  4  1  0  0  0  0
  6  1  1  0  0  0  0
  7  6  1  0  0  0  0
  8  9  1  0  0  0  0
  8  7  2  0  0  0  0
  9  5  1  0  0  0  0
 10  9  1  0  0  0  0
 11  1  1  0  0  0  0
 12 11  1  0  0  0  0
 13 11  1  1  0  0  0
 13 14  1  0  0  0  0
 14 15  1  0  0  0  0
 16 15  1  0  0  0  0
 17 16  1  0  0  0  0
 18 17  1  0  0  0  0
 19 17  1  0  0  0  0
 19 13  1  0  0  0  0
 20 19  2  0  0  0  0
M  END
>  <MODEL>
4

>  <REMARK>
  Name = ZINC50392675
                            x       y       z     vdW  Elec       q    Type
                         _______ _______ _______ _____ _____    ______ ____

>  <TORSDO>
F 3

>  <minimizedAffinity>
-6.6139334213298504

$$$$
ZINC50392675
 OpenBabel10211214033D

 20 21  0  0  1  0  0  0  0  0999 V2000
   51.5980   52.5350   20.6450 S   0  0  0  0  0  0  0  0  0  0  0  0
   52.4280   53.2020   19.7040 O   0  0  0  0  0  0  0  0  0  0  0  0
   52.1210   51.8950   21.8010 O   0  0  0  0  0  0  0  0  0  0  0  0
   49.6970   52.8480   17.9850 C   0  0  0  0  0  0  0  0  0  0  0  0
   49.9400   51.5200   18.6550 C   0  0  0  0  0  0  0  0  0  0  0  0
   50.7060   51.3080   19.7500 C   0  0  0  0  0  0  0  0  0  0  0  0
   50.6640   49.9410   20.0460 C   0  0  0  0  0  0  0  0  0  0  0  0
   49.9000   49.3540   19.1600 N   0  0  0  0  0  0  0  0  0  0  0  0
   49.4270   50.3320   18.2740 N   0  0  0  0  0  0  0  0  0  0  0  0
   48.8370   50.1790   17.5210 H   0  0  0  0  0  0  0  0  0  0  0  0
   50.4960   53.6500   21.1790 N   0  0  0  0  0  0  0  0  0  0  0  0
   49.7410   53.3670   21.7170 H   0  0  0  0  0  0  0  0  0  0  0  0
   50.6610   55.0650   20.8360 C   0  0  1  0  0  0  0  0  0  0  0  0
   49.3060   55.6510   20.4300 C   0  0  0  0  0  0  0  0  0  0  0  0
   49.4450   57.1770   20.3450 C   0  0  0  0  0  0  0  0  0  0  0  0
   49.6790   57.7270   21.7520 C   0  0  0  0  0  0  0  0  0  0  0  0
   50.7640   57.0060   22.4060 N   0  0  0  0  0  0  0  0  0  0  0  0
   51.1960   57.4260   23.1670 H   0  0  0  0  0  0  0  0  0  0  0  0
   51.2010   55.8060   22.0250 C   0  0  0  0  0  0  0  0  0  0  0  0
   52.0840   55.2860   22.6740 O   0  0  0  0  0  0  0  0  0  0  0  0
  1 11  1  0  0  0  0
  1  3  2  0  0  0  0
  2  1  2  0  0  0  0
  4  5  1  0  0  0  0
  5  6  2  0  0  0  0
  6  7  1  0  0  0  0
  6  1  1  0  0  0  0
  8  7  2  0  0  0  0
  9  5  1  0  0  0  0
  9  8  1  0  0  0  0
 10  9  1  0  0  0  0
 11 12  1  0  0  0  0
 13 11  1  1  0  0  0
 13 19  1  0  0  0  0
 14 13  1  0  0  0  0
 15 14  1  0  0  0  0
 15 16  1  0  0  0  0
 16 17  1  0  0  0  0
 17 18  1  0  0  0  0
 19 17  1  0  0  0  0
 19 20  2  0  0  0  0
M  END
>  <MODEL>
5

>  <REMARK>
  Name = ZINC50392675
                            x       y       z     vdW  Elec       q    Type
                         _______ _______ _______ _____ _____    ______ ____

>  <TORSDO>
F 3

>  <minimizedAffinity>
-6.6070277325820763

$$$$
ZINC50392675
 OpenBabel10211214033D

 20 21  0  0  1  0  0  0  0  0999 V2000
   50.3300   55.2400   19.8160 S   0  0  0  0  0  0  0  0  0  0  0  0
   50.2410   55.8460   18.5340 O   0  0  0  0  0  0  0  0  0  0  0  0
   49.1800   54.9040   20.5800 O   0  0  0  0  0  0  0  0  0  0  0  0
   49.4000   57.7800   21.6810 C   0  0  0  0  0  0  0  0  0  0  0  0
   50.8390   57.3480   21.5600 C   0  0  0  0  0  0  0  0  0  0  0  0
   51.3020   56.3180   20.8160 C   0  0  0  0  0  0  0  0  0  0  0  0
   52.6900   56.2580   20.9810 C   0  0  0  0  0  0  0  0  0  0  0  0
   53.0470   57.2180   21.7940 N   0  0  0  0  0  0  0  0  0  0  0  0
   51.8960   57.9240   22.1700 N   0  0  0  0  0  0  0  0  0  0  0  0
   51.8650   58.6890   22.7640 H   0  0  0  0  0  0  0  0  0  0  0  0
   51.1940   53.8420   19.6210 N   0  0  0  0  0  0  0  0  0  0  0  0
   52.0610   53.8630   19.1860 H   0  0  0  0  0  0  0  0  0  0  0  0
   50.6500   52.5700   20.1040 C   0  0  1  0  0  0  0  0  0  0  0  0
   50.6620   51.5460   18.9660 C   0  0  0  0  0  0  0  0  0  0  0  0
   50.3530   50.1630   19.5550 C   0  0  0  0  0  0  0  0  0  0  0  0
   51.5200   49.7400   20.4480 C   0  0  0  0  0  0  0  0  0  0  0  0
   51.8470   50.7980   21.3960 N   0  0  0  0  0  0  0  0  0  0  0  0
   52.3590   50.5600   22.1850 H   0  0  0  0  0  0  0  0  0  0  0  0
   51.4860   52.0720   21.2470 C   0  0  0  0  0  0  0  0  0  0  0  0
   51.8520   52.8710   22.0820 O   0  0  0  0  0  0  0  0  0  0  0  0
  1  3  2  0  0  0  0
  1  6  1  0  0  0  0
  2  1  2  0  0  0  0
  5  4  1  0  0  0  0
  5  9  1  0  0  0  0
  6  7  1  0  0  0  0
  6  5  2  0  0  0  0
  7  8  2  0  0  0  0
  8  9  1  0  0  0  0
  9 10  1  0  0  0  0
 11  1  1  0  0  0  0
 12 11  1  0  0  0  0
 13 11  1  6  0  0  0
 13 19  1  0  0  0  0
 14 15  1  0  0  0  0
 14 13  1  0  0  0  0
 15 16  1  0  0  0  0
 16 17  1  0  0  0  0
 17 18  1  0  0  0  0
 19 17  1  0  0  0  0
 19 20  2  0  0  0  0
M  END
>  <MODEL>
6

>  <REMARK>
  Name = ZINC50392675
                            x       y       z     vdW  Elec       q    Type
                         _______ _______ _______ _____ _____    ______ ____

>  <TORSDO>
F 3

>  <minimizedAffinity>
-6.5378686930228209

$$$$
ZINC50392675
 OpenBabel10211214033D

 20 21  0  0  1  0  0  0  0  0999 V2000
   47.9420   48.2420   16.4620 S   0  0  0  0  0  0  0  0  0  0  0  0
   48.3190   48.6090   15.1410 O   0  0  0  0  0  0  0  0  0  0  0  0
   48.5270   47.1400   17.1420 O   0  0  0  0  0  0  0  0  0  0  0  0
   45.8670   47.6430   18.9370 C   0  0  0  0  0  0  0  0  0  0  0  0
   45.4170   47.7100   17.5010 C   0  0  0  0  0  0  0  0  0  0  0  0
   46.2050   47.9500   16.4280 C   0  0  0  0  0  0  0  0  0  0  0  0
   45.3970   47.9260   15.2860 C   0  0  0  0  0  0  0  0  0  0  0  0
   44.1680   47.6800   15.6600 N   0  0  0  0  0  0  0  0  0  0  0  0
   44.1550   47.5350   17.0540 N   0  0  0  0  0  0  0  0  0  0  0  0
   43.3780   47.3440   17.6000 H   0  0  0  0  0  0  0  0  0  0  0  0
   48.1960   49.5730   17.4130 N   0  0  0  0  0  0  0  0  0  0  0  0
   48.1390   49.4980   18.3790 H   0  0  0  0  0  0  0  0  0  0  0  0
   48.5040   50.8660   16.7970 C   0  0  1  0  0  0  0  0  0  0  0  0
   47.3410   51.8330   17.0330 C   0  0  0  0  0  0  0  0  0  0  0  0
   47.7930   53.2430   16.6290 C   0  0  0  0  0  0  0  0  0  0  0  0
   48.8700   53.7110   17.6090 C   0  0  0  0  0  0  0  0  0  0  0  0
   49.9130   52.7020   17.7420 N   0  0  0  0  0  0  0  0  0  0  0  0
   50.7720   52.9790   18.0970 H   0  0  0  0  0  0  0  0  0  0  0  0
   49.7600   51.4210   17.4050 C   0  0  0  0  0  0  0  0  0  0  0  0
   50.6870   50.6640   17.6000 O   0  0  0  0  0  0  0  0  0  0  0  0
  1  3  2  0  0  0  0
  1 11  1  0  0  0  0
  2  1  2  0  0  0  0
  5  4  1  0  0  0  0
  6  1  1  0  0  0  0
  6  5  2  0  0  0  0
  7  8  2  0  0  0  0
  7  6  1  0  0  0  0
  8  9  1  0  0  0  0
  9  5  1  0  0  0  0
  9 10  1  0  0  0  0
 11 12  1  0  0  0  0
 13 14  1  0  0  0  0
 13 19  1  0  0  0  0
 13 11  1  1  0  0  0
 15 14  1  0  0  0  0
 15 16  1  0  0  0  0
 16 17  1  0  0  0  0
 17 18  1  0  0  0  0
 19 20  2  0  0  0  0
 19 17  1  0  0  0  0
M  END
>  <MODEL>
7

>  <REMARK>
  Name = ZINC50392675
                            x       y       z     vdW  Elec       q    Type
                         _______ _______ _______ _____ _____    ______ ____

>  <TORSDO>
F 3

>  <minimizedAffinity>
-6.4095473623747603

$$$$
ZINC50392675
 OpenBabel10211214033D

 20 21  0  0  1  0  0  0  0  0999 V2000
   51.4270   52.9660   21.0960 S   0  0  0  0  0  0  0  0  0  0  0  0
   51.9820   52.0190   21.9990 O   0  0  0  0  0  0  0  0  0  0  0  0
   50.0260   53.1350   20.9360 O   0  0  0  0  0  0  0  0  0  0  0  0
   50.6820   50.4900   19.0710 C   0  0  0  0  0  0  0  0  0  0  0  0
   51.7110   51.5360   18.7270 C   0  0  0  0  0  0  0  0  0  0  0  0
   52.0750   52.5820   19.5030 C   0  0  0  0  0  0  0  0  0  0  0  0
   53.0550   53.3070   18.8170 C   0  0  0  0  0  0  0  0  0  0  0  0
   53.2730   52.7160   17.6710 N   0  0  0  0  0  0  0  0  0  0  0  0
   52.4390   51.5920   17.5920 N   0  0  0  0  0  0  0  0  0  0  0  0
   52.3930   50.9670   16.8530 H   0  0  0  0  0  0  0  0  0  0  0  0
   52.0350   54.4440   21.5280 N   0  0  0  0  0  0  0  0  0  0  0  0
   52.7710   54.5020   22.1590 H   0  0  0  0  0  0  0  0  0  0  0  0
   51.4620   55.6670   20.9600 C   0  0  1  0  0  0  0  0  0  0  0  0
   49.9340   55.5820   21.0060 C   0  0  0  0  0  0  0  0  0  0  0  0
   49.3620   56.9650   20.6690 C   0  0  0  0  0  0  0  0  0  0  0  0
   49.7130   57.9300   21.8020 C   0  0  0  0  0  0  0  0  0  0  0  0
   51.1380   57.8660   22.1030 N   0  0  0  0  0  0  0  0  0  0  0  0
   51.5350   58.6080   22.5870 H   0  0  0  0  0  0  0  0  0  0  0  0
   51.9300   56.8530   21.7550 C   0  0  0  0  0  0  0  0  0  0  0  0
   53.0930   56.8920   22.0970 O   0  0  0  0  0  0  0  0  0  0  0  0
  1 11  1  0  0  0  0
  1  2  2  0  0  0  0
  3  1  2  0  0  0  0
  5  4  1  0  0  0  0
  5  6  2  0  0  0  0
  6  1  1  0  0  0  0
  7  6  1  0  0  0  0
  8  7  2  0  0  0  0
  9  8  1  0  0  0  0
  9  5  1  0  0  0  0
 10  9  1  0  0  0  0
 11 12  1  0  0  0  0
 13 14  1  0  0  0  0
 13 11  1  1  0  0  0
 13 19  1  0  0  0  0
 15 14  1  0  0  0  0
 15 16  1  0  0  0  0
 16 17  1  0  0  0  0
 17 18  1  0  0  0  0
 19 20  2  0  0  0  0
 19 17  1  0  0  0  0
M  END
>  <MODEL>
8

>  <REMARK>
  Name = ZINC50392675
                            x       y       z     vdW  Elec       q    Type
                         _______ _______ _______ _____ _____    ______ ____

>  <TORSDO>
F 3

>  <minimizedAffinity>
-6.2337107020811251

$$$$
ZINC50392675
 OpenBabel10211214033D

 20 21  0  0  1  0  0  0  0  0999 V2000
   51.9170   53.1350   19.2460 S   0  0  0  0  0  0  0  0  0  0  0  0
   52.9370   53.2740   18.2670 O   0  0  0  0  0  0  0  0  0  0  0  0
   52.2030   53.0360   20.6350 O   0  0  0  0  0  0  0  0  0  0  0  0
   52.6800   49.9650   19.6500 C   0  0  0  0  0  0  0  0  0  0  0  0
   51.3870   50.4130   19.0190 C   0  0  0  0  0  0  0  0  0  0  0  0
   50.9990   51.6930   18.8160 C   0  0  0  0  0  0  0  0  0  0  0  0
   49.7410   51.6710   18.2060 C   0  0  0  0  0  0  0  0  0  0  0  0
   49.3860   50.4220   18.0470 N   0  0  0  0  0  0  0  0  0  0  0  0
   50.4110   49.6080   18.5480 N   0  0  0  0  0  0  0  0  0  0  0  0
   50.4170   48.6390   18.5570 H   0  0  0  0  0  0  0  0  0  0  0  0
   50.9040   54.4320   19.0630 N   0  0  0  0  0  0  0  0  0  0  0  0
   50.7540   54.8100   18.1820 H   0  0  0  0  0  0  0  0  0  0  0  0
   50.2360   55.0110   20.2310 C   0  0  1  0  0  0  0  0  0  0  0  0
   50.9790   56.2760   20.6680 C   0  0  0  0  0  0  0  0  0  0  0  0
   50.1180   57.0110   21.7040 C   0  0  0  0  0  0  0  0  0  0  0  0
   48.8630   57.5400   21.0090 C   0  0  0  0  0  0  0  0  0  0  0  0
   48.2130   56.4780   20.2510 N   0  0  0  0  0  0  0  0  0  0  0  0
   47.2820   56.5990   20.0060 H   0  0  0  0  0  0  0  0  0  0  0  0
   48.8170   55.3510   19.8750 C   0  0  0  0  0  0  0  0  0  0  0  0
   48.1850   54.5580   19.2110 O   0  0  0  0  0  0  0  0  0  0  0  0
  1  3  2  0  0  0  0
  2  1  2  0  0  0  0
  5  4  1  0  0  0  0
  6  5  2  0  0  0  0
  6  1  1  0  0  0  0
  7  6  1  0  0  0  0
  8  7  2  0  0  0  0
  8  9  1  0  0  0  0
  9 10  1  0  0  0  0
  9  5  1  0  0  0  0
 11  1  1  0  0  0  0
 12 11  1  0  0  0  0
 13 11  1  6  0  0  0
 13 14  1  0  0  0  0
 14 15  1  0  0  0  0
 16 15  1  0  0  0  0
 17 16  1  0  0  0  0
 18 17  1  0  0  0  0
 19 13  1  0  0  0  0
 19 17  1  0  0  0  0
 20 19  2  0  0  0  0
M  END
>  <MODEL>
9

>  <REMARK>
  Name = ZINC50392675
                            x       y       z     vdW  Elec       q    Type
                         _______ _______ _______ _____ _____    ______ ____

>  <TORSDO>
F 3

>  <minimizedAffinity>
-6.2210540851563572

$$$$
ZINC40487020
 OpenBabel10211214033D

 23 24  0  0  1  0  0  0  0  0999 V2000
   52.0530   56.8880   20.8840 C   0  0  2  0  0  0  0  0  0  0  0  0
   52.4780   55.4940   20.7290 N   0  0  0  0  0  0  0  0  0  0  0  0
   52.9820   55.0590   21.4340 H   0  0  0  0  0  0  0  0  0  0  0  0
   52.1710   54.8170   19.6050 C   0  0  0  0  0  0  0  0  0  0  0  0
   51.5420   55.3610   18.7220 O   0  0  0  0  0  0  0  0  0  0  0  0
   52.6090   53.3840   19.4450 C   0  0  1  0  0  0  0  0  0  0  0  0
   52.0920   52.5520   20.6540 C   0  0  0  0  0  0  0  0  0  0  0  0
   52.1700   50.8730   19.8840 S   0  0  0  0  0  0  0  0  0  0  0  0
   51.8350   51.3970   18.1500 C   0  0  0  0  0  0  0  0  0  0  0  0
   52.0760   52.8560   18.1870 N   0  0  0  0  0  0  0  0  0  0  0  0
   52.7270   53.0840   17.4490 H   0  0  0  0  0  0  0  0  0  0  0  0
   51.2050   53.3250   17.9920 H   0  0  0  0  0  0  0  0  0  0  0  0
   53.2430   57.7390   21.2460 C   0  0  0  0  0  0  0  0  0  0  0  0
   54.3720   57.3170   21.0660 O   0  0  0  0  0  0  0  0  0  0  0  0
   53.0760   58.8500   21.7190 O   0  0  0  0  0  0  0  0  0  0  0  0
   51.0030   56.9790   21.9940 C   0  0  0  0  0  0  0  0  0  0  0  0
   48.7690   58.1540   21.6310 C   0  0  0  0  0  0  0  0  0  0  0  0
   49.6390   57.1560   21.3800 C   0  0  0  0  0  0  0  0  0  0  0  0
   49.0450   56.3360   20.4580 N   0  0  0  0  0  0  0  0  0  0  0  0
   49.4250   55.5290   20.0780 H   0  0  0  0  0  0  0  0  0  0  0  0
   47.8330   56.8610   20.1790 C   0  0  0  0  0  0  0  0  0  0  0  0
   47.6740   57.9480   20.8840 N   0  0  0  0  0  0  0  0  0  0  0  0
   46.8890   58.5160   20.8710 H   0  0  0  0  0  0  0  0  0  0  0  0
  1  2  1  1  0  0  0
  1 13  1  0  0  0  0
  1 16  1  0  0  0  0
  2  3  1  0  0  0  0
  4  2  1  0  0  0  0
  5  4  2  0  0  0  0
  6  4  1  1  0  0  0
  6  7  1  0  0  0  0
  8  7  1  0  0  0  0
  9 10  1  0  0  0  0
  9  8  1  0  0  0  0
 10  6  1  0  0  0  0
 11 10  1  0  0  0  0
 12 10  1  0  0  0  0
 13 15  1  0  0  0  0
 14 13  2  0  0  0  0
 18 17  2  0  0  0  0
 18 16  1  0  0  0  0
 19 18  1  0  0  0  0
 20 19  1  0  0  0  0
 21 19  1  0  0  0  0
 21 22  1  0  0  0  0
 22 17  1  0  0  0  0
 23 22  1  0  0  0  0
M  END
>  <MODEL>
1

>  <REMARK>
  Name = ZINC40487020
                            x       y       z     vdW  Elec       q    Type
                         _______ _______ _______ _____ _____    ______ ____

>  <TORSDO>
F 5

>  <minimizedAffinity>
-6.5087023991527708

$$$$
ZINC40487020
 OpenBabel10211214033D

 23 24  0  0  1  0  0  0  0  0999 V2000
   49.8220   51.8070   17.6930 C   0  0  2  0  0  0  0  0  0  0  0  0
   49.7920   52.9880   18.5580 N   0  0  0  0  0  0  0  0  0  0  0  0
   48.9560   53.2780   18.9560 H   0  0  0  0  0  0  0  0  0  0  0  0
   50.9260   53.6750   18.8010 C   0  0  0  0  0  0  0  0  0  0  0  0
   51.9710   53.3150   18.3030 O   0  0  0  0  0  0  0  0  0  0  0  0
   50.8950   54.8910   19.6900 C   0  0  1  0  0  0  0  0  0  0  0  0
   51.1840   54.4600   21.1580 C   0  0  0  0  0  0  0  0  0  0  0  0
   51.7310   56.0970   21.8210 S   0  0  0  0  0  0  0  0  0  0  0  0
   52.4610   56.7480   20.2590 C   0  0  0  0  0  0  0  0  0  0  0  0
   51.8970   55.8530   19.2260 N   0  0  0  0  0  0  0  0  0  0  0  0
   51.4740   56.4270   18.5110 H   0  0  0  0  0  0  0  0  0  0  0  0
   52.6560   55.3390   18.8060 H   0  0  0  0  0  0  0  0  0  0  0  0
   48.8470   51.9900   16.5590 C   0  0  0  0  0  0  0  0  0  0  0  0
   48.3700   53.0890   16.3360 O   0  0  0  0  0  0  0  0  0  0  0  0
   48.5340   51.0380   15.8640 O   0  0  0  0  0  0  0  0  0  0  0  0
   49.4340   50.5700   18.5060 C   0  0  0  0  0  0  0  0  0  0  0  0
   50.7060   49.0100   20.0710 C   0  0  0  0  0  0  0  0  0  0  0  0
   50.6680   49.9710   19.1280 C   0  0  0  0  0  0  0  0  0  0  0  0
   51.9670   50.2970   18.8430 N   0  0  0  0  0  0  0  0  0  0  0  0
   52.2660   50.9600   18.2010 H   0  0  0  0  0  0  0  0  0  0  0  0
   52.7540   49.5240   19.6230 C   0  0  0  0  0  0  0  0  0  0  0  0
   51.9920   48.7570   20.3550 N   0  0  0  0  0  0  0  0  0  0  0  0
   52.3070   48.1070   21.0020 H   0  0  0  0  0  0  0  0  0  0  0  0
  1 13  1  1  0  0  0
  1 16  1  0  0  0  0
  1  2  1  0  0  0  0
  2  4  1  0  0  0  0
  2  3  1  0  0  0  0
  5  4  2  0  0  0  0
  6  4  1  1  0  0  0
  6  7  1  0  0  0  0
  7  8  1  0  0  0  0
  9  8  1  0  0  0  0
 10  6  1  0  0  0  0
 10  9  1  0  0  0  0
 11 10  1  0  0  0  0
 12 10  1  0  0  0  0
 14 13  1  0  0  0  0
 15 13  2  0  0  0  0
 16 18  1  0  0  0  0
 17 22  1  0  0  0  0
 18 17  2  0  0  0  0
 19 18  1  0  0  0  0
 19 21  1  0  0  0  0
 20 19  1  0  0  0  0
 21 22  1  0  0  0  0
 22 23  1  0  0  0  0
M  END
>  <MODEL>
2

>  <REMARK>
  Name = ZINC40487020
                            x       y       z     vdW  Elec       q    Type
                         _______ _______ _______ _____ _____    ______ ____

>  <TORSDO>
F 5

>  <minimizedAffinity>
-6.3171124944621413

$$$$
ZINC40487020
 OpenBabel10211214033D

 23 24  0  0  1  0  0  0  0  0999 V2000
   48.5200   48.4040   18.0290 C   0  0  2  0  0  0  0  0  0  0  0  0
   49.6630   49.2750   18.3140 N   0  0  0  0  0  0  0  0  0  0  0  0
   50.0390   49.8270   17.6110 H   0  0  0  0  0  0  0  0  0  0  0  0
   50.1930   49.3070   19.5530 C   0  0  0  0  0  0  0  0  0  0  0  0
   49.7240   48.6160   20.4310 O   0  0  0  0  0  0  0  0  0  0  0  0
   51.3700   50.2030   19.8450 C   0  0  1  0  0  0  0  0  0  0  0  0
   51.2800   51.4750   18.9520 C   0  0  0  0  0  0  0  0  0  0  0  0
   52.3610   52.5900   19.9560 S   0  0  0  0  0  0  0  0  0  0  0  0
   51.9760   51.8640   21.6050 C   0  0  0  0  0  0  0  0  0  0  0  0
   51.3580   50.5640   21.2640 N   0  0  0  0  0  0  0  0  0  0  0  0
   51.8440   49.8430   21.7770 H   0  0  0  0  0  0  0  0  0  0  0  0
   50.4000   50.5790   21.5780 H   0  0  0  0  0  0  0  0  0  0  0  0
   48.7670   47.6540   16.7460 C   0  0  0  0  0  0  0  0  0  0  0  0
   48.9650   48.2660   15.7100 O   0  0  0  0  0  0  0  0  0  0  0  0
   48.7690   46.4350   16.7430 O   0  0  0  0  0  0  0  0  0  0  0  0
   47.2550   49.2530   17.8880 C   0  0  0  0  0  0  0  0  0  0  0  0
   45.5650   47.4540   18.5310 C   0  0  0  0  0  0  0  0  0  0  0  0
   46.0680   48.3520   17.6620 C   0  0  0  0  0  0  0  0  0  0  0  0
   45.2920   48.2900   16.5360 N   0  0  0  0  0  0  0  0  0  0  0  0
   45.4040   48.8190   15.7300 H   0  0  0  0  0  0  0  0  0  0  0  0
   44.3430   47.3550   16.7560 C   0  0  0  0  0  0  0  0  0  0  0  0
   44.5130   46.8590   17.9510 N   0  0  0  0  0  0  0  0  0  0  0  0
   43.9640   46.1700   18.3560 H   0  0  0  0  0  0  0  0  0  0  0  0
  1 13  1  6  0  0  0
  1  2  1  0  0  0  0
  2  4  1  0  0  0  0
  3  2  1  0  0  0  0
  4  5  2  0  0  0  0
  6  4  1  1  0  0  0
  6 10  1  0  0  0  0
  7  6  1  0  0  0  0
  7  8  1  0  0  0  0
  8  9  1  0  0  0  0
 10 12  1  0  0  0  0
 10  9  1  0  0  0  0
 10 11  1  0  0  0  0
 14 13  2  0  0  0  0
 15 13  1  0  0  0  0
 16  1  1  0  0  0  0
 18 16  1  0  0  0  0
 18 17  2  0  0  0  0
 19 21  1  0  0  0  0
 19 18  1  0  0  0  0
 20 19  1  0  0  0  0
 21 22  1  0  0  0  0
 22 23  1  0  0  0  0
 22 17  1  0  0  0  0
M  END
>  <MODEL>
3

>  <REMARK>
  Name = ZINC40487020
                            x       y       z     vdW  Elec       q    Type
                         _______ _______ _______ _____ _____    ______ ____

>  <TORSDO>
F 5

>  <minimizedAffinity>
-6.1055877173105602

$$$$
ZINC40487020
 OpenBabel10211214033D

 23 24  0  0  1  0  0  0  0  0999 V2000
   51.0610   51.0760   19.6690 C   0  0  2  0  0  0  0  0  0  0  0  0
   50.0930   50.0700   19.2260 N   0  0  0  0  0  0  0  0  0  0  0  0
   49.9870   49.2450   19.7240 H   0  0  0  0  0  0  0  0  0  0  0  0
   49.3480   50.2920   18.1240 C   0  0  0  0  0  0  0  0  0  0  0  0
   49.4800   51.3230   17.5000 O   0  0  0  0  0  0  0  0  0  0  0  0
   48.3520   49.2570   17.6680 C   0  0  1  0  0  0  0  0  0  0  0  0
   47.8460   49.6270   16.2420 C   0  0  0  0  0  0  0  0  0  0  0  0
   47.2450   47.9570   15.7250 S   0  0  0  0  0  0  0  0  0  0  0  0
   48.4570   46.9630   16.6930 C   0  0  0  0  0  0  0  0  0  0  0  0
   48.9940   47.9400   17.6640 N   0  0  0  0  0  0  0  0  0  0  0  0
   48.9050   47.5450   18.5880 H   0  0  0  0  0  0  0  0  0  0  0  0
   49.9750   48.0690   17.4720 H   0  0  0  0  0  0  0  0  0  0  0  0
   52.4560   50.6050   19.3480 C   0  0  0  0  0  0  0  0  0  0  0  0
   53.1830   50.1980   20.2390 O   0  0  0  0  0  0  0  0  0  0  0  0
   52.8590   50.6310   18.1980 O   0  0  0  0  0  0  0  0  0  0  0  0
   50.9270   51.2810   21.1800 C   0  0  0  0  0  0  0  0  0  0  0  0
   50.5290   53.7680   20.7790 C   0  0  0  0  0  0  0  0  0  0  0  0
   51.0390   52.7500   21.4980 C   0  0  0  0  0  0  0  0  0  0  0  0
   51.6770   53.3060   22.5740 N   0  0  0  0  0  0  0  0  0  0  0  0
   52.1430   52.8270   23.2770 H   0  0  0  0  0  0  0  0  0  0  0  0
   51.5350   54.6450   22.4750 C   0  0  0  0  0  0  0  0  0  0  0  0
   50.8470   54.9140   21.3980 N   0  0  0  0  0  0  0  0  0  0  0  0
   50.6060   55.8030   21.0940 H   0  0  0  0  0  0  0  0  0  0  0  0
  1  2  1  1  0  0  0
  1 16  1  0  0  0  0
  2  3  1  0  0  0  0
  4  2  1  0  0  0  0
  5  4  2  0  0  0  0
  6  4  1  6  0  0  0
  7  6  1  0  0  0  0
  8  7  1  0  0  0  0
  8  9  1  0  0  0  0
  9 10  1  0  0  0  0
 10  6  1  0  0  0  0
 10 11  1  0  0  0  0
 12 10  1  0  0  0  0
 13  1  1  0  0  0  0
 13 14  1  0  0  0  0
 15 13  2  0  0  0  0
 16 18  1  0  0  0  0
 17 22  1  0  0  0  0
 17 18  2  0  0  0  0
 18 19  1  0  0  0  0
 19 20  1  0  0  0  0
 21 19  1  0  0  0  0
 22 21  1  0  0  0  0
 23 22  1  0  0  0  0
M  END
>  <MODEL>
4

>  <REMARK>
  Name = ZINC40487020
                            x       y       z     vdW  Elec       q    Type
                         _______ _______ _______ _____ _____    ______ ____

>  <TORSDO>
F 5

>  <minimizedAffinity>
-6.0874160634737828

$$$$
ZINC40487020
 OpenBabel10211214033D

 23 24  0  0  1  0  0  0  0  0999 V2000
   51.3400   54.5090   20.7370 C   0  0  2  0  0  0  0  0  0  0  0  0
   50.3440   53.6720   20.0620 N   0  0  0  0  0  0  0  0  0  0  0  0
   49.4810   53.5150   20.4770 H   0  0  0  0  0  0  0  0  0  0  0  0
   50.6270   53.1200   18.8660 C   0  0  0  0  0  0  0  0  0  0  0  0
   51.7050   53.3150   18.3480 O   0  0  0  0  0  0  0  0  0  0  0  0
   49.6030   52.2580   18.1730 C   0  0  1  0  0  0  0  0  0  0  0  0
   48.6350   53.1670   17.3600 C   0  0  0  0  0  0  0  0  0  0  0  0
   48.0020   51.8980   16.1730 S   0  0  0  0  0  0  0  0  0  0  0  0
   49.5240   50.8620   16.1070 C   0  0  0  0  0  0  0  0  0  0  0  0
   50.2880   51.3120   17.2910 N   0  0  0  0  0  0  0  0  0  0  0  0
   50.5330   50.4960   17.8340 H   0  0  0  0  0  0  0  0  0  0  0  0
   51.1420   51.7410   16.9700 H   0  0  0  0  0  0  0  0  0  0  0  0
   51.6700   53.9120   22.0800 C   0  0  0  0  0  0  0  0  0  0  0  0
   51.8030   52.7060   22.1960 O   0  0  0  0  0  0  0  0  0  0  0  0
   51.8060   54.6360   23.0520 O   0  0  0  0  0  0  0  0  0  0  0  0
   50.7750   55.9180   20.9300 C   0  0  0  0  0  0  0  0  0  0  0  0
   52.9800   57.0340   20.3010 C   0  0  0  0  0  0  0  0  0  0  0  0
   51.9100   56.8940   21.1060 C   0  0  0  0  0  0  0  0  0  0  0  0
   52.0500   57.8100   22.1140 N   0  0  0  0  0  0  0  0  0  0  0  0
   51.4360   57.9520   22.8520 H   0  0  0  0  0  0  0  0  0  0  0  0
   53.2020   58.4770   21.8900 C   0  0  0  0  0  0  0  0  0  0  0  0
   53.7530   58.0070   20.8040 N   0  0  0  0  0  0  0  0  0  0  0  0
   54.5900   58.3140   20.4210 H   0  0  0  0  0  0  0  0  0  0  0  0
  1  2  1  1  0  0  0
  1 16  1  0  0  0  0
  1 13  1  0  0  0  0
  2  3  1  0  0  0  0
  4  2  1  0  0  0  0
  5  4  2  0  0  0  0
  6  4  1  6  0  0  0
  7  6  1  0  0  0  0
  8  7  1  0  0  0  0
  9  8  1  0  0  0  0
  9 10  1  0  0  0  0
 10 11  1  0  0  0  0
 10  6  1  0  0  0  0
 12 10  1  0  0  0  0
 13 14  2  0  0  0  0
 13 15  1  0  0  0  0
 16 18  1  0  0  0  0
 17 22  1  0  0  0  0
 17 18  2  0  0  0  0
 18 19  1  0  0  0  0
 19 20  1  0  0  0  0
 21 19  1  0  0  0  0
 22 21  1  0  0  0  0
 23 22  1  0  0  0  0
M  END
>  <MODEL>
5

>  <REMARK>
  Name = ZINC40487020
                            x       y       z     vdW  Elec       q    Type
                         _______ _______ _______ _____ _____    ______ ____

>  <TORSDO>
F 5

>  <minimizedAffinity>
-6.0685338762218484

$$$$
ZINC40487020
 OpenBabel10211214033D

 23 24  0  0  1  0  0  0  0  0999 V2000
   48.9290   51.2890   17.7710 C   0  0  2  0  0  0  0  0  0  0  0  0
   48.2260   50.4150   16.8290 N   0  0  0  0  0  0  0  0  0  0  0  0
   48.2990   50.5710   15.8740 H   0  0  0  0  0  0  0  0  0  0  0  0
   47.4750   49.3950   17.2890 C   0  0  0  0  0  0  0  0  0  0  0  0
   47.3820   49.2000   18.4820 O   0  0  0  0  0  0  0  0  0  0  0  0
   46.7500   48.4960   16.3200 C   0  0  1  0  0  0  0  0  0  0  0  0
   47.1180   47.0140   16.6220 C   0  0  0  0  0  0  0  0  0  0  0  0
   45.6660   46.2020   15.8160 S   0  0  0  0  0  0  0  0  0  0  0  0
   44.4490   47.5530   16.1140 C   0  0  0  0  0  0  0  0  0  0  0  0
   45.3070   48.7090   16.4550 N   0  0  0  0  0  0  0  0  0  0  0  0
   45.0460   49.4800   15.8570 H   0  0  0  0  0  0  0  0  0  0  0  0
   45.1150   48.9740   17.4090 H   0  0  0  0  0  0  0  0  0  0  0  0
   48.8730   52.7110   17.2760 C   0  0  0  0  0  0  0  0  0  0  0  0
   48.2930   52.9710   16.2350 O   0  0  0  0  0  0  0  0  0  0  0  0
   49.4060   53.6010   17.9150 O   0  0  0  0  0  0  0  0  0  0  0  0
   50.3900   50.8450   17.8830 C   0  0  0  0  0  0  0  0  0  0  0  0
   50.9820   50.6960   20.3590 C   0  0  0  0  0  0  0  0  0  0  0  0
   50.5990   50.1350   19.1960 C   0  0  0  0  0  0  0  0  0  0  0  0
   50.4350   48.7980   19.4360 N   0  0  0  0  0  0  0  0  0  0  0  0
   50.1620   48.1270   18.7910 H   0  0  0  0  0  0  0  0  0  0  0  0
   50.7230   48.5870   20.7380 C   0  0  0  0  0  0  0  0  0  0  0  0
   51.0500   49.7270   21.2840 N   0  0  0  0  0  0  0  0  0  0  0  0
   51.3030   49.8530   22.2120 H   0  0  0  0  0  0  0  0  0  0  0  0
  1  2  1  6  0  0  0
  1 16  1  0  0  0  0
  2  4  1  0  0  0  0
  3  2  1  0  0  0  0
  4  5  2  0  0  0  0
  6 10  1  0  0  0  0
  6  7  1  0  0  0  0
  6  4  1  1  0  0  0
  8  9  1  0  0  0  0
  8  7  1  0  0  0  0
  9 10  1  0  0  0  0
 10 12  1  0  0  0  0
 11 10  1  0  0  0  0
 13  1  1  0  0  0  0
 13 15  1  0  0  0  0
 14 13  2  0  0  0  0
 16 18  1  0  0  0  0
 17 22  1  0  0  0  0
 18 19  1  0  0  0  0
 18 17  2  0  0  0  0
 19 21  1  0  0  0  0
 20 19  1  0  0  0  0
 21 22  1  0  0  0  0
 22 23  1  0  0  0  0
M  END
>  <MODEL>
6

>  <REMARK>
  Name = ZINC40487020
                            x       y       z     vdW  Elec       q    Type
                         _______ _______ _______ _____ _____    ______ ____

>  <TORSDO>
F 5

>  <minimizedAffinity>
-5.8085025642263801

$$$$
ZINC40487020
 OpenBabel10211214033D

 23 24  0  0  1  0  0  0  0  0999 V2000
   51.6330   52.8060   19.8250 C   0  0  2  0  0  0  0  0  0  0  0  0
   52.1690   54.1680   19.8810 N   0  0  0  0  0  0  0  0  0  0  0  0
   53.1050   54.3300   19.6800 H   0  0  0  0  0  0  0  0  0  0  0  0
   51.3640   55.1960   20.2140 C   0  0  0  0  0  0  0  0  0  0  0  0
   50.1960   54.9940   20.4670 O   0  0  0  0  0  0  0  0  0  0  0  0
   51.9170   56.5970   20.2730 C   0  0  1  0  0  0  0  0  0  0  0  0
   51.5260   57.2450   21.6330 C   0  0  0  0  0  0  0  0  0  0  0  0
   52.8240   58.5610   21.6920 S   0  0  0  0  0  0  0  0  0  0  0  0
   54.1270   57.6420   20.7690 C   0  0  0  0  0  0  0  0  0  0  0  0
   53.3730   56.5460   20.1230 N   0  0  0  0  0  0  0  0  0  0  0  0
   53.5890   56.5570   19.1370 H   0  0  0  0  0  0  0  0  0  0  0  0
   53.6990   55.6720   20.5050 H   0  0  0  0  0  0  0  0  0  0  0  0
   52.1100   52.0270   21.0230 C   0  0  0  0  0  0  0  0  0  0  0  0
   52.7880   51.0250   20.8680 O   0  0  0  0  0  0  0  0  0  0  0  0
   51.8200   52.3990   22.1470 O   0  0  0  0  0  0  0  0  0  0  0  0
   52.1160   52.1200   18.5450 C   0  0  0  0  0  0  0  0  0  0  0  0
   49.6500   51.5750   18.1920 C   0  0  0  0  0  0  0  0  0  0  0  0
   50.9500   51.4550   17.8600 C   0  0  0  0  0  0  0  0  0  0  0  0
   51.0070   50.6150   16.7810 N   0  0  0  0  0  0  0  0  0  0  0  0
   51.8080   50.3340   16.3120 H   0  0  0  0  0  0  0  0  0  0  0  0
   49.7390   50.2500   16.4910 C   0  0  0  0  0  0  0  0  0  0  0  0
   48.9330   50.8280   17.3400 N   0  0  0  0  0  0  0  0  0  0  0  0
   47.9680   50.7320   17.3520 H   0  0  0  0  0  0  0  0  0  0  0  0
  1 16  1  6  0  0  0
  1  2  1  0  0  0  0
  1 13  1  0  0  0  0
  2  4  1  0  0  0  0
  3  2  1  0  0  0  0
  4  5  2  0  0  0  0
  6  4  1  1  0  0  0
  6  7  1  0  0  0  0
  7  8  1  0  0  0  0
  9  8  1  0  0  0  0
 10  6  1  0  0  0  0
 10 12  1  0  0  0  0
 10  9  1  0  0  0  0
 11 10  1  0  0  0  0
 13 15  1  0  0  0  0
 14 13  2  0  0  0  0
 18 17  2  0  0  0  0
 18 16  1  0  0  0  0
 19 18  1  0  0  0  0
 20 19  1  0  0  0  0
 21 19  1  0  0  0  0
 21 22  1  0  0  0  0
 22 23  1  0  0  0  0
 22 17  1  0  0  0  0
M  END
>  <MODEL>
7

>  <REMARK>
  Name = ZINC40487020
                            x       y       z     vdW  Elec       q    Type
                         _______ _______ _______ _____ _____    ______ ____

>  <TORSDO>
F 5

>  <minimizedAffinity>
-5.7532347535567387

$$$$
ZINC40487020
 OpenBabel10211214033D

 23 24  0  0  1  0  0  0  0  0999 V2000
   51.1140   52.9150   20.0690 C   0  0  2  0  0  0  0  0  0  0  0  0
   50.3310   52.0720   19.1620 N   0  0  0  0  0  0  0  0  0  0  0  0
   49.3740   51.9780   19.2920 H   0  0  0  0  0  0  0  0  0  0  0  0
   50.9400   51.4260   18.1480 C   0  0  0  0  0  0  0  0  0  0  0  0
   52.1360   51.5430   17.9870 O   0  0  0  0  0  0  0  0  0  0  0  0
   50.1350   50.5580   17.2160 C   0  0  1  0  0  0  0  0  0  0  0  0
   48.8800   51.3460   16.7380 C   0  0  0  0  0  0  0  0  0  0  0  0
   48.5160   50.3760   15.2070 S   0  0  0  0  0  0  0  0  0  0  0  0
   50.2530   49.9040   14.8110 C   0  0  0  0  0  0  0  0  0  0  0  0
   50.9700   50.1730   16.0760 N   0  0  0  0  0  0  0  0  0  0  0  0
   51.4810   49.3400   16.3290 H   0  0  0  0  0  0  0  0  0  0  0  0
   51.6370   50.9100   15.9110 H   0  0  0  0  0  0  0  0  0  0  0  0
   51.3250   52.1900   21.3730 C   0  0  0  0  0  0  0  0  0  0  0  0
   52.2620   51.4190   21.4970 O   0  0  0  0  0  0  0  0  0  0  0  0
   50.5600   52.3730   22.3040 O   0  0  0  0  0  0  0  0  0  0  0  0
   50.3590   54.2220   20.3290 C   0  0  0  0  0  0  0  0  0  0  0  0
   51.5020   55.9020   21.8700 C   0  0  0  0  0  0  0  0  0  0  0  0
   51.3440   55.3100   20.6710 C   0  0  0  0  0  0  0  0  0  0  0  0
   52.2520   55.8850   19.8230 N   0  0  0  0  0  0  0  0  0  0  0  0
   52.3820   55.6690   18.8860 H   0  0  0  0  0  0  0  0  0  0  0  0
   52.9330   56.8100   20.5330 C   0  0  0  0  0  0  0  0  0  0  0  0
   52.4780   56.8150   21.7570 N   0  0  0  0  0  0  0  0  0  0  0  0
   52.7960   57.3880   22.4720 H   0  0  0  0  0  0  0  0  0  0  0  0
  1  2  1  1  0  0  0
  1 16  1  0  0  0  0
  1 13  1  0  0  0  0
  2  3  1  0  0  0  0
  4  2  1  0  0  0  0
  5  4  2  0  0  0  0
  6  4  1  6  0  0  0
  7  6  1  0  0  0  0
  8  7  1  0  0  0  0
  9  8  1  0  0  0  0
  9 10  1  0  0  0  0
 10 11  1  0  0  0  0
 10  6  1  0  0  0  0
 12 10  1  0  0  0  0
 13 14  2  0  0  0  0
 13 15  1  0  0  0  0
 16 18  1  0  0  0  0
 18 17  2  0  0  0  0
 19 21  1  0  0  0  0
 19 18  1  0  0  0  0
 20 19  1  0  0  0  0
 21 22  1  0  0  0  0
 22 17  1  0  0  0  0
 22 23  1  0  0  0  0
M  END
>  <MODEL>
8

>  <REMARK>
  Name = ZINC40487020
                            x       y       z     vdW  Elec       q    Type
                         _______ _______ _______ _____ _____    ______ ____

>  <TORSDO>
F 5

>  <minimizedAffinity>
-5.7379549424367982

$$$$
ZINC40487020
 OpenBabel10211214033D

 23 24  0  0  1  0  0  0  0  0999 V2000
   50.6110   53.1150   19.3280 C   0  0  2  0  0  0  0  0  0  0  0  0
   50.2740   52.2030   18.2320 N   0  0  0  0  0  0  0  0  0  0  0  0
   50.8420   51.4400   18.0430 H   0  0  0  0  0  0  0  0  0  0  0  0
   49.1740   52.4250   17.4850 C   0  0  0  0  0  0  0  0  0  0  0  0
   48.4640   53.3800   17.7200 O   0  0  0  0  0  0  0  0  0  0  0  0
   48.8280   51.4880   16.3570 C   0  0  1  0  0  0  0  0  0  0  0  0
   49.9280   50.3920   16.2460 C   0  0  0  0  0  0  0  0  0  0  0  0
   48.9490   49.1140   15.3360 S   0  0  0  0  0  0  0  0  0  0  0  0
   47.2990   49.5420   16.0360 C   0  0  0  0  0  0  0  0  0  0  0  0
   47.5190   50.8840   16.6180 N   0  0  0  0  0  0  0  0  0  0  0  0
   46.8090   51.5030   16.2540 H   0  0  0  0  0  0  0  0  0  0  0  0
   47.3960   50.8190   17.6160 H   0  0  0  0  0  0  0  0  0  0  0  0
   51.9120   53.8110   19.0200 C   0  0  0  0  0  0  0  0  0  0  0  0
   52.6710   53.3440   18.1880 O   0  0  0  0  0  0  0  0  0  0  0  0
   52.2050   54.8400   19.6030 O   0  0  0  0  0  0  0  0  0  0  0  0
   50.7530   52.3190   20.6280 C   0  0  0  0  0  0  0  0  0  0  0  0
   50.8490   49.7850   20.3640 C   0  0  0  0  0  0  0  0  0  0  0  0
   51.4250   51.0020   20.3380 C   0  0  0  0  0  0  0  0  0  0  0  0
   52.7370   50.8120   19.9970 N   0  0  0  0  0  0  0  0  0  0  0  0
   53.4110   51.5020   19.8970 H   0  0  0  0  0  0  0  0  0  0  0  0
   52.9170   49.4850   19.8260 C   0  0  0  0  0  0  0  0  0  0  0  0
   51.7830   48.8760   20.0480 N   0  0  0  0  0  0  0  0  0  0  0  0
   51.6400   47.9190   19.9920 H   0  0  0  0  0  0  0  0  0  0  0  0
  1  2  1  6  0  0  0
  1 16  1  0  0  0  0
  3  2  1  0  0  0  0
  4  5  2  0  0  0  0
  4  2  1  0  0  0  0
  6 10  1  0  0  0  0
  6  4  1  1  0  0  0
  7  6  1  0  0  0  0
  8  9  1  0  0  0  0
  8  7  1  0  0  0  0
  9 10  1  0  0  0  0
 10 12  1  0  0  0  0
 11 10  1  0  0  0  0
 13  1  1  0  0  0  0
 13 15  1  0  0  0  0
 14 13  2  0  0  0  0
 18 17  2  0  0  0  0
 18 16  1  0  0  0  0
 19 18  1  0  0  0  0
 20 19  1  0  0  0  0
 21 19  1  0  0  0  0
 21 22  1  0  0  0  0
 22 17  1  0  0  0  0
 23 22  1  0  0  0  0
M  END
>  <MODEL>
9

>  <REMARK>
  Name = ZINC40487020
                            x       y       z     vdW  Elec       q    Type
                         _______ _______ _______ _____ _____    ______ ____

>  <TORSDO>
F 5

>  <minimizedAffinity>
-5.7281344425369278

$$$$
ZINC12403343
 OpenBabel10211214053D

 26 27  0  0  0  0  0  0  0  0999 V2000
   52.2000   52.6440   18.4200 C   0  0  0  0  0  0  0  0  0  0  0  0
   51.0760   51.9630   18.1210 N   0  0  0  0  0  0  0  0  0  0  0  0
   50.1980   52.0330   18.7790 H   0  0  0  0  0  0  0  0  0  0  0  0
   53.1680   52.5680   17.6940 O   0  0  0  0  0  0  0  0  0  0  0  0
   51.0280   51.1650   16.9690 N   0  0  0  0  0  0  0  0  0  0  0  0
   51.8290   51.2330   16.2190 H   0  0  0  0  0  0  0  0  0  0  0  0
   49.9980   50.3150   16.7820 C   0  0  0  0  0  0  0  0  0  0  0  0
   49.0160   50.2330   17.7020 N   0  0  0  0  0  0  0  0  0  0  0  0
   49.0540   50.8600   18.6060 H   0  0  0  0  0  0  0  0  0  0  0  0
   49.9560   49.6230   15.7840 O   0  0  0  0  0  0  0  0  0  0  0  0
   47.8980   49.3090   17.4980 C   0  0  0  0  0  0  0  0  0  0  0  0
   46.7370   50.0520   16.8330 C   0  0  0  0  0  0  0  0  0  0  0  0
   45.5690   49.0880   16.6200 C   0  0  0  0  0  0  0  0  0  0  0  0
   45.1120   48.5340   17.9720 C   0  0  0  0  0  0  0  0  0  0  0  0
   46.2720   47.7920   18.6370 C   0  0  0  0  0  0  0  0  0  0  0  0
   47.4400   48.7560   18.8490 C   0  0  0  0  0  0  0  0  0  0  0  0
   52.2530   53.5020   19.6580 C   0  0  0  0  0  0  0  0  0  0  0  0
   50.9750   53.4980   20.2960 O   0  0  0  0  0  0  0  0  0  0  0  0
   48.8920   58.4840   21.8850 C   0  0  0  0  0  0  0  0  0  0  0  0
   49.4500   57.1500   21.4600 C   0  0  0  0  0  0  0  0  0  0  0  0
   50.6170   56.6770   22.0300 C   0  0  0  0  0  0  0  0  0  0  0  0
   51.1330   55.4570   21.6380 C   0  0  0  0  0  0  0  0  0  0  0  0
   50.4730   54.7010   20.6800 C   0  0  0  0  0  0  0  0  0  0  0  0
   49.2990   55.1760   20.1130 C   0  0  0  0  0  0  0  0  0  0  0  0
   48.5800   54.3590   19.0720 C   0  0  0  0  0  0  0  0  0  0  0  0
   48.7890   56.3990   20.5050 C   0  0  0  0  0  0  0  0  0  0  0  0
  1 17  1  0  0  0  0
  2  1  1  0  0  0  0
  2  3  1  0  0  0  0
  4  1  2  0  0  0  0
  5  2  1  0  0  0  0
  6  5  1  0  0  0  0
  7  5  1  0  0  0  0
  7  8  1  0  0  0  0
  8  9  1  0  0  0  0
 10  7  2  0  0  0  0
 11  8  1  0  0  0  0
 11 16  1  0  0  0  0
 12 11  1  0  0  0  0
 13 12  1  0  0  0  0
 13 14  1  0  0  0  0
 14 15  1  0  0  0  0
 15 16  1  0  0  0  0
 17 18  1  0  0  0  0
 18 23  1  0  0  0  0
 20 19  1  0  0  0  0
 20 21  2  0  0  0  0
 22 21  1  0  0  0  0
 23 22  2  0  0  0  0
 24 26  2  0  0  0  0
 24 23  1  0  0  0  0
 25 24  1  0  0  0  0
 26 20  1  0  0  0  0
M  END
>  <MODEL>
1

>  <REMARK>
  Name = ZINC12403343
                            x       y       z     vdW  Elec       q    Type
                         _______ _______ _______ _____ _____    ______ ____

>  <TORSDO>
F 5

>  <minimizedAffinity>
-9.3672982752919776

$$$$
ZINC12403343
 OpenBabel10211214053D

 26 27  0  0  0  0  0  0  0  0999 V2000
   52.3020   52.2680   18.3990 C   0  0  0  0  0  0  0  0  0  0  0  0
   51.9440   53.1150   19.3850 N   0  0  0  0  0  0  0  0  0  0  0  0
   51.1120   52.8570   20.0570 H   0  0  0  0  0  0  0  0  0  0  0  0
   53.2190   52.5520   17.6590 O   0  0  0  0  0  0  0  0  0  0  0  0
   52.6320   54.3230   19.5530 N   0  0  0  0  0  0  0  0  0  0  0  0
   53.7320   54.3340   19.5590 H   0  0  0  0  0  0  0  0  0  0  0  0
   51.9460   55.4740   19.7090 C   0  0  0  0  0  0  0  0  0  0  0  0
   50.5980   55.4600   19.7030 N   0  0  0  0  0  0  0  0  0  0  0  0
   50.0570   54.5100   19.5710 H   0  0  0  0  0  0  0  0  0  0  0  0
   52.5430   56.5220   19.8550 O   0  0  0  0  0  0  0  0  0  0  0  0
   49.8520   56.7090   19.8720 C   0  0  0  0  0  0  0  0  0  0  0  0
   49.4580   56.8730   21.3420 C   0  0  0  0  0  0  0  0  0  0  0  0
   48.6790   58.1770   21.5190 C   0  0  0  0  0  0  0  0  0  0  0  0
   47.4170   58.1400   20.6530 C   0  0  0  0  0  0  0  0  0  0  0  0
   47.8120   57.9760   19.1840 C   0  0  0  0  0  0  0  0  0  0  0  0
   48.5900   56.6710   19.0080 C   0  0  0  0  0  0  0  0  0  0  0  0
   51.5620   50.9680   18.2170 C   0  0  0  0  0  0  0  0  0  0  0  0
   50.4370   51.1750   17.3610 O   0  0  0  0  0  0  0  0  0  0  0  0
   45.7980   48.1790   18.4630 C   0  0  0  0  0  0  0  0  0  0  0  0
   47.0390   48.9800   18.1680 C   0  0  0  0  0  0  0  0  0  0  0  0
   48.2590   48.5740   18.6760 C   0  0  0  0  0  0  0  0  0  0  0  0
   49.3970   49.3110   18.4120 C   0  0  0  0  0  0  0  0  0  0  0  0
   49.3180   50.4520   17.6270 C   0  0  0  0  0  0  0  0  0  0  0  0
   48.0930   50.8550   17.1150 C   0  0  0  0  0  0  0  0  0  0  0  0
   48.0020   52.0940   16.2630 C   0  0  0  0  0  0  0  0  0  0  0  0
   46.9560   50.1170   17.3860 C   0  0  0  0  0  0  0  0  0  0  0  0
  1  2  1  0  0  0  0
  2  5  1  0  0  0  0
  2  3  1  0  0  0  0
  4  1  2  0  0  0  0
  5  6  1  0  0  0  0
  5  7  1  0  0  0  0
  7 10  2  0  0  0  0
  8  7  1  0  0  0  0
  8 11  1  0  0  0  0
  9  8  1  0  0  0  0
 11 12  1  0  0  0  0
 12 13  1  0  0  0  0
 14 13  1  0  0  0  0
 15 14  1  0  0  0  0
 16 15  1  0  0  0  0
 16 11  1  0  0  0  0
 17  1  1  0  0  0  0
 18 23  1  0  0  0  0
 18 17  1  0  0  0  0
 20 19  1  0  0  0  0
 20 21  2  0  0  0  0
 22 21  1  0  0  0  0
 23 22  2  0  0  0  0
 24 26  2  0  0  0  0
 24 23  1  0  0  0  0
 25 24  1  0  0  0  0
 26 20  1  0  0  0  0
M  END
>  <MODEL>
2

>  <REMARK>
  Name = ZINC12403343
                            x       y       z     vdW  Elec       q    Type
                         _______ _______ _______ _____ _____    ______ ____

>  <TORSDO>
F 5

>  <minimizedAffinity>
-9.2235847256752663

$$$$
ZINC12403343
 OpenBabel10211214053D

 26 27  0  0  0  0  0  0  0  0999 V2000
   51.9800   52.1090   20.1140 C   0  0  0  0  0  0  0  0  0  0  0  0
   51.1570   51.5500   21.0240 N   0  0  0  0  0  0  0  0  0  0  0  0
   50.4330   52.1750   21.5680 H   0  0  0  0  0  0  0  0  0  0  0  0
   52.7770   51.4210   19.5140 O   0  0  0  0  0  0  0  0  0  0  0  0
   51.2240   50.1740   21.2760 N   0  0  0  0  0  0  0  0  0  0  0  0
   51.8010   49.7980   22.1330 H   0  0  0  0  0  0  0  0  0  0  0  0
   50.5800   49.3090   20.4650 C   0  0  0  0  0  0  0  0  0  0  0  0
   49.8730   49.7700   19.4140 N   0  0  0  0  0  0  0  0  0  0  0  0
   49.8210   50.8510   19.2170 H   0  0  0  0  0  0  0  0  0  0  0  0
   50.6380   48.1140   20.6830 O   0  0  0  0  0  0  0  0  0  0  0  0
   49.1740   48.8300   18.5340 C   0  0  0  0  0  0  0  0  0  0  0  0
   49.3910   49.2390   17.0750 C   0  0  0  0  0  0  0  0  0  0  0  0
   48.6610   48.2590   16.1570 C   0  0  0  0  0  0  0  0  0  0  0  0
   47.1640   48.2800   16.4740 C   0  0  0  0  0  0  0  0  0  0  0  0
   46.9470   47.8720   17.9320 C   0  0  0  0  0  0  0  0  0  0  0  0
   47.6770   48.8520   18.8510 C   0  0  0  0  0  0  0  0  0  0  0  0
   51.9090   53.5900   19.8430 C   0  0  0  0  0  0  0  0  0  0  0  0
   51.5050   54.2730   21.0310 O   0  0  0  0  0  0  0  0  0  0  0  0
   47.3250   58.0150   20.5330 C   0  0  0  0  0  0  0  0  0  0  0  0
   48.4430   57.0130   20.6670 C   0  0  0  0  0  0  0  0  0  0  0  0
   48.3630   55.7990   20.0100 C   0  0  0  0  0  0  0  0  0  0  0  0
   49.3840   54.8770   20.1360 C   0  0  0  0  0  0  0  0  0  0  0  0
   50.4960   55.1750   20.9110 C   0  0  0  0  0  0  0  0  0  0  0  0
   50.5750   56.3960   21.5640 C   0  0  0  0  0  0  0  0  0  0  0  0
   51.7800   56.7240   22.4080 C   0  0  0  0  0  0  0  0  0  0  0  0
   49.5490   57.3130   21.4400 C   0  0  0  0  0  0  0  0  0  0  0  0
  1  2  1  0  0  0  0
  2  5  1  0  0  0  0
  2  3  1  0  0  0  0
  4  1  2  0  0  0  0
  5  6  1  0  0  0  0
  7 10  2  0  0  0  0
  7  5  1  0  0  0  0
  8  7  1  0  0  0  0
  9  8  1  0  0  0  0
 11 16  1  0  0  0  0
 11  8  1  0  0  0  0
 12 11  1  0  0  0  0
 13 14  1  0  0  0  0
 13 12  1  0  0  0  0
 14 15  1  0  0  0  0
 15 16  1  0  0  0  0
 17  1  1  0  0  0  0
 17 18  1  0  0  0  0
 19 20  1  0  0  0  0
 20 26  2  0  0  0  0
 21 22  2  0  0  0  0
 21 20  1  0  0  0  0
 22 23  1  0  0  0  0
 23 18  1  0  0  0  0
 23 24  2  0  0  0  0
 24 25  1  0  0  0  0
 26 24  1  0  0  0  0
M  END
>  <MODEL>
3

>  <REMARK>
  Name = ZINC12403343
                            x       y       z     vdW  Elec       q    Type
                         _______ _______ _______ _____ _____    ______ ____

>  <TORSDO>
F 5

>  <minimizedAffinity>
-8.8074125716754477

$$$$
ZINC12403343
 OpenBabel10211214053D

 26 27  0  0  0  0  0  0  0  0999 V2000
   50.3020   51.2660   18.1230 C   0  0  0  0  0  0  0  0  0  0  0  0
   49.3270   50.3850   18.4230 N   0  0  0  0  0  0  0  0  0  0  0  0
   48.3620   50.7430   18.8100 H   0  0  0  0  0  0  0  0  0  0  0  0
   51.3660   50.8720   17.6950 O   0  0  0  0  0  0  0  0  0  0  0  0
   49.5440   49.0130   18.2390 N   0  0  0  0  0  0  0  0  0  0  0  0
   50.4040   48.5230   18.7190 H   0  0  0  0  0  0  0  0  0  0  0  0
   48.6980   48.2930   17.4740 C   0  0  0  0  0  0  0  0  0  0  0  0
   47.6450   48.8950   16.8860 N   0  0  0  0  0  0  0  0  0  0  0  0
   47.4750   49.9720   17.0300 H   0  0  0  0  0  0  0  0  0  0  0  0
   48.8860   47.1030   17.3150 O   0  0  0  0  0  0  0  0  0  0  0  0
   46.7260   48.1130   16.0550 C   0  0  0  0  0  0  0  0  0  0  0  0
   46.8470   48.5640   14.5970 C   0  0  0  0  0  0  0  0  0  0  0  0
   45.8880   47.7490   13.7300 C   0  0  0  0  0  0  0  0  0  0  0  0
   44.4520   47.9660   14.2130 C   0  0  0  0  0  0  0  0  0  0  0  0
   44.3310   47.5160   15.6700 C   0  0  0  0  0  0  0  0  0  0  0  0
   45.2910   48.3310   16.5380 C   0  0  0  0  0  0  0  0  0  0  0  0
   50.0700   52.7420   18.3200 C   0  0  0  0  0  0  0  0  0  0  0  0
   50.1120   53.0500   19.7140 O   0  0  0  0  0  0  0  0  0  0  0  0
   48.4430   58.2060   21.2470 C   0  0  0  0  0  0  0  0  0  0  0  0
   48.8890   56.8260   20.8370 C   0  0  0  0  0  0  0  0  0  0  0  0
   48.1430   56.1020   19.9260 C   0  0  0  0  0  0  0  0  0  0  0  0
   48.5470   54.8350   19.5530 C   0  0  0  0  0  0  0  0  0  0  0  0
   49.7090   54.2930   20.0840 C   0  0  0  0  0  0  0  0  0  0  0  0
   50.4580   55.0240   20.9940 C   0  0  0  0  0  0  0  0  0  0  0  0
   51.7210   54.4400   21.5730 C   0  0  0  0  0  0  0  0  0  0  0  0
   50.0480   56.2900   21.3680 C   0  0  0  0  0  0  0  0  0  0  0  0
  1 17  1  0  0  0  0
  1  2  1  0  0  0  0
  2  3  1  0  0  0  0
  4  1  2  0  0  0  0
  5  2  1  0  0  0  0
  5  6  1  0  0  0  0
  7  5  1  0  0  0  0
  8  9  1  0  0  0  0
  8  7  1  0  0  0  0
 10  7  2  0  0  0  0
 11 16  1  0  0  0  0
 11  8  1  0  0  0  0
 12 11  1  0  0  0  0
 13 14  1  0  0  0  0
 13 12  1  0  0  0  0
 14 15  1  0  0  0  0
 15 16  1  0  0  0  0
 17 18  1  0  0  0  0
 18 23  1  0  0  0  0
 20 19  1  0  0  0  0
 20 26  2  0  0  0  0
 21 20  1  0  0  0  0
 22 21  2  0  0  0  0
 22 23  1  0  0  0  0
 23 24  2  0  0  0  0
 24 26  1  0  0  0  0
 24 25  1  0  0  0  0
M  END
>  <MODEL>
4

>  <REMARK>
  Name = ZINC12403343
                            x       y       z     vdW  Elec       q    Type
                         _______ _______ _______ _____ _____    ______ ____

>  <TORSDO>
F 5

>  <minimizedAffinity>
-8.6898759156180123

$$$$
ZINC12403343
 OpenBabel10211214053D

 26 27  0  0  0  0  0  0  0  0999 V2000
   52.2440   51.3090   17.7430 C   0  0  0  0  0  0  0  0  0  0  0  0
   50.9540   51.0770   17.4250 N   0  0  0  0  0  0  0  0  0  0  0  0
   50.1500   51.4800   18.0580 H   0  0  0  0  0  0  0  0  0  0  0  0
   53.1300   50.8660   17.0450 O   0  0  0  0  0  0  0  0  0  0  0  0
   50.6400   50.3220   16.2870 N   0  0  0  0  0  0  0  0  0  0  0  0
   51.3020   50.3470   15.4090 H   0  0  0  0  0  0  0  0  0  0  0  0
   49.5250   49.5640   16.2690 C   0  0  0  0  0  0  0  0  0  0  0  0
   48.7130   49.5330   17.3450 N   0  0  0  0  0  0  0  0  0  0  0  0
   48.9610   50.1260   18.2380 H   0  0  0  0  0  0  0  0  0  0  0  0
   49.2520   48.9080   15.2830 O   0  0  0  0  0  0  0  0  0  0  0  0
   47.5020   48.7090   17.3260 C   0  0  0  0  0  0  0  0  0  0  0  0
   46.3990   49.4430   16.5590 C   0  0  0  0  0  0  0  0  0  0  0  0
   45.1340   48.5830   16.5390 C   0  0  0  0  0  0  0  0  0  0  0  0
   44.6710   48.3220   17.9740 C   0  0  0  0  0  0  0  0  0  0  0  0
   45.7740   47.5890   18.7400 C   0  0  0  0  0  0  0  0  0  0  0  0
   47.0390   48.4490   18.7600 C   0  0  0  0  0  0  0  0  0  0  0  0
   52.5830   52.1220   18.9660 C   0  0  0  0  0  0  0  0  0  0  0  0
   51.4290   52.8510   19.3890 O   0  0  0  0  0  0  0  0  0  0  0  0
   52.3150   57.8740   21.7760 C   0  0  0  0  0  0  0  0  0  0  0  0
   52.0780   56.5300   21.1370 C   0  0  0  0  0  0  0  0  0  0  0  0
   52.1880   56.3890   19.7660 C   0  0  0  0  0  0  0  0  0  0  0  0
   51.9650   55.1600   19.1780 C   0  0  0  0  0  0  0  0  0  0  0  0
   51.6430   54.0630   19.9640 C   0  0  0  0  0  0  0  0  0  0  0  0
   51.5390   54.2060   21.3400 C   0  0  0  0  0  0  0  0  0  0  0  0
   51.1880   53.0180   22.1980 C   0  0  0  0  0  0  0  0  0  0  0  0
   51.7570   55.4400   21.9240 C   0  0  0  0  0  0  0  0  0  0  0  0
  1 17  1  0  0  0  0
  2  1  1  0  0  0  0
  2  3  1  0  0  0  0
  4  1  2  0  0  0  0
  5  2  1  0  0  0  0
  6  5  1  0  0  0  0
  7  5  1  0  0  0  0
  7  8  1  0  0  0  0
  8  9  1  0  0  0  0
 10  7  2  0  0  0  0
 11  8  1  0  0  0  0
 11 16  1  0  0  0  0
 12 11  1  0  0  0  0
 13 12  1  0  0  0  0
 13 14  1  0  0  0  0
 14 15  1  0  0  0  0
 15 16  1  0  0  0  0
 17 18  1  0  0  0  0
 18 23  1  0  0  0  0
 20 19  1  0  0  0  0
 20 26  2  0  0  0  0
 21 20  1  0  0  0  0
 22 21  2  0  0  0  0
 22 23  1  0  0  0  0
 23 24  2  0  0  0  0
 24 26  1  0  0  0  0
 24 25  1  0  0  0  0
M  END
>  <MODEL>
5

>  <REMARK>
  Name = ZINC12403343
                            x       y       z     vdW  Elec       q    Type
                         _______ _______ _______ _____ _____    ______ ____

>  <TORSDO>
F 5

>  <minimizedAffinity>
-8.6521628486057374

$$$$
ZINC12403343
 OpenBabel10211214053D

 26 27  0  0  0  0  0  0  0  0999 V2000
   50.1630   50.4500   18.5150 C   0  0  0  0  0  0  0  0  0  0  0  0
   50.3760   51.5690   17.7930 N   0  0  0  0  0  0  0  0  0  0  0  0
   49.6700   51.8540   16.9980 H   0  0  0  0  0  0  0  0  0  0  0  0
   50.9400   50.1370   19.3910 O   0  0  0  0  0  0  0  0  0  0  0  0
   51.4960   52.3680   18.0560 N   0  0  0  0  0  0  0  0  0  0  0  0
   52.5070   51.9770   17.8710 H   0  0  0  0  0  0  0  0  0  0  0  0
   51.3340   53.6180   18.5370 C   0  0  0  0  0  0  0  0  0  0  0  0
   50.0940   54.0970   18.7640 N   0  0  0  0  0  0  0  0  0  0  0  0
   49.2150   53.4680   18.5570 H   0  0  0  0  0  0  0  0  0  0  0  0
   52.3060   54.3110   18.7650 O   0  0  0  0  0  0  0  0  0  0  0  0
   49.9190   55.4540   19.2860 C   0  0  0  0  0  0  0  0  0  0  0  0
   49.9310   55.4180   20.8160 C   0  0  0  0  0  0  0  0  0  0  0  0
   49.7470   56.8350   21.3610 C   0  0  0  0  0  0  0  0  0  0  0  0
   48.4100   57.3990   20.8750 C   0  0  0  0  0  0  0  0  0  0  0  0
   48.3980   57.4350   19.3460 C   0  0  0  0  0  0  0  0  0  0  0  0
   48.5820   56.0180   18.8010 C   0  0  0  0  0  0  0  0  0  0  0  0
   48.9580   49.5900   18.2330 C   0  0  0  0  0  0  0  0  0  0  0  0
   48.0930   50.2670   17.3190 O   0  0  0  0  0  0  0  0  0  0  0  0
   43.9580   47.2310   14.9920 C   0  0  0  0  0  0  0  0  0  0  0  0
   45.0640   48.0440   15.6150 C   0  0  0  0  0  0  0  0  0  0  0  0
   44.9550   48.4670   16.9270 C   0  0  0  0  0  0  0  0  0  0  0  0
   45.9650   49.2160   17.4980 C   0  0  0  0  0  0  0  0  0  0  0  0
   47.0950   49.5350   16.7580 C   0  0  0  0  0  0  0  0  0  0  0  0
   47.2040   49.1050   15.4440 C   0  0  0  0  0  0  0  0  0  0  0  0
   48.4290   49.4490   14.6370 C   0  0  0  0  0  0  0  0  0  0  0  0
   46.1890   48.3590   14.8750 C   0  0  0  0  0  0  0  0  0  0  0  0
  1  4  2  0  0  0  0
  2  5  1  0  0  0  0
  2  1  1  0  0  0  0
  3  2  1  0  0  0  0
  5  7  1  0  0  0  0
  6  5  1  0  0  0  0
  7  8  1  0  0  0  0
  7 10  2  0  0  0  0
  8 11  1  0  0  0  0
  9  8  1  0  0  0  0
 11 12  1  0  0  0  0
 12 13  1  0  0  0  0
 14 13  1  0  0  0  0
 15 14  1  0  0  0  0
 16 11  1  0  0  0  0
 16 15  1  0  0  0  0
 17  1  1  0  0  0  0
 18 17  1  0  0  0  0
 19 20  1  0  0  0  0
 20 21  2  0  0  0  0
 21 22  1  0  0  0  0
 23 18  1  0  0  0  0
 23 22  2  0  0  0  0
 24 23  1  0  0  0  0
 25 24  1  0  0  0  0
 26 24  2  0  0  0  0
 26 20  1  0  0  0  0
M  END
>  <MODEL>
6

>  <REMARK>
  Name = ZINC12403343
                            x       y       z     vdW  Elec       q    Type
                         _______ _______ _______ _____ _____    ______ ____

>  <TORSDO>
F 5

>  <minimizedAffinity>
-8.5127135890299197

$$$$
ZINC12403343
 OpenBabel10211214053D

 26 27  0  0  0  0  0  0  0  0999 V2000
   52.3110   52.3240   18.3410 C   0  0  0  0  0  0  0  0  0  0  0  0
   51.9650   53.0210   19.4420 N   0  0  0  0  0  0  0  0  0  0  0  0
   51.1600   52.6530   20.0960 H   0  0  0  0  0  0  0  0  0  0  0  0
   53.1980   52.7280   17.6210 O   0  0  0  0  0  0  0  0  0  0  0  0
   52.6310   54.2130   19.7530 N   0  0  0  0  0  0  0  0  0  0  0  0
   53.7220   54.2140   19.8940 H   0  0  0  0  0  0  0  0  0  0  0  0
   51.9340   55.3610   19.8790 C   0  0  0  0  0  0  0  0  0  0  0  0
   50.5970   55.3600   19.7060 N   0  0  0  0  0  0  0  0  0  0  0  0
   50.0740   54.4230   19.4620 H   0  0  0  0  0  0  0  0  0  0  0  0
   52.5120   56.3960   20.1480 O   0  0  0  0  0  0  0  0  0  0  0  0
   49.8410   56.6070   19.8420 C   0  0  0  0  0  0  0  0  0  0  0  0
   49.4370   56.8000   21.3060 C   0  0  0  0  0  0  0  0  0  0  0  0
   48.6460   58.1020   21.4490 C   0  0  0  0  0  0  0  0  0  0  0  0
   47.3900   58.0340   20.5780 C   0  0  0  0  0  0  0  0  0  0  0  0
   47.7940   57.8410   19.1150 C   0  0  0  0  0  0  0  0  0  0  0  0
   48.5840   56.5390   18.9720 C   0  0  0  0  0  0  0  0  0  0  0  0
   51.5950   51.0410   18.0060 C   0  0  0  0  0  0  0  0  0  0  0  0
   50.1880   51.2190   18.1850 O   0  0  0  0  0  0  0  0  0  0  0  0
   46.7880   48.3990   14.6910 C   0  0  0  0  0  0  0  0  0  0  0  0
   47.6980   49.1540   15.6250 C   0  0  0  0  0  0  0  0  0  0  0  0
   48.3310   50.3040   15.1930 C   0  0  0  0  0  0  0  0  0  0  0  0
   49.1700   50.9940   16.0460 C   0  0  0  0  0  0  0  0  0  0  0  0
   49.3680   50.5390   17.3410 C   0  0  0  0  0  0  0  0  0  0  0  0
   48.7280   49.3870   17.7750 C   0  0  0  0  0  0  0  0  0  0  0  0
   48.9410   48.8890   19.1810 C   0  0  0  0  0  0  0  0  0  0  0  0
   47.8930   48.6970   16.9160 C   0  0  0  0  0  0  0  0  0  0  0  0
  1  2  1  0  0  0  0
  2  5  1  0  0  0  0
  2  3  1  0  0  0  0
  4  1  2  0  0  0  0
  5  7  1  0  0  0  0
  5  6  1  0  0  0  0
  7 10  2  0  0  0  0
  8 11  1  0  0  0  0
  8  7  1  0  0  0  0
  9  8  1  0  0  0  0
 11 12  1  0  0  0  0
 12 13  1  0  0  0  0
 14 13  1  0  0  0  0
 15 14  1  0  0  0  0
 16 15  1  0  0  0  0
 16 11  1  0  0  0  0
 17 18  1  0  0  0  0
 17  1  1  0  0  0  0
 19 20  1  0  0  0  0
 20 26  1  0  0  0  0
 21 20  2  0  0  0  0
 21 22  1  0  0  0  0
 22 23  2  0  0  0  0
 23 24  1  0  0  0  0
 23 18  1  0  0  0  0
 24 25  1  0  0  0  0
 26 24  2  0  0  0  0
M  END
>  <MODEL>
7

>  <REMARK>
  Name = ZINC12403343
                            x       y       z     vdW  Elec       q    Type
                         _______ _______ _______ _____ _____    ______ ____

>  <TORSDO>
F 5

>  <minimizedAffinity>
-8.3571568136336793

$$$$
ZINC12403343
 OpenBabel10211214053D

 26 27  0  0  0  0  0  0  0  0999 V2000
   48.8450   53.7650   18.0030 C   0  0  0  0  0  0  0  0  0  0  0  0
   49.5000   52.5930   18.1310 N   0  0  0  0  0  0  0  0  0  0  0  0
   49.8800   52.2800   19.1150 H   0  0  0  0  0  0  0  0  0  0  0  0
   48.4250   54.1100   16.9200 O   0  0  0  0  0  0  0  0  0  0  0  0
   49.6950   51.7750   17.0110 N   0  0  0  0  0  0  0  0  0  0  0  0
   50.4810   52.0190   16.2810 H   0  0  0  0  0  0  0  0  0  0  0  0
   48.9180   50.6890   16.8260 C   0  0  0  0  0  0  0  0  0  0  0  0
   47.9540   50.3910   17.7200 N   0  0  0  0  0  0  0  0  0  0  0  0
   47.8010   51.0340   18.6000 H   0  0  0  0  0  0  0  0  0  0  0  0
   49.0870   49.9790   15.8540 O   0  0  0  0  0  0  0  0  0  0  0  0
   47.1100   49.2110   17.5200 C   0  0  0  0  0  0  0  0  0  0  0  0
   45.7740   49.6370   16.9050 C   0  0  0  0  0  0  0  0  0  0  0  0
   44.8930   48.4050   16.6970 C   0  0  0  0  0  0  0  0  0  0  0  0
   44.6400   47.7230   18.0440 C   0  0  0  0  0  0  0  0  0  0  0  0
   45.9750   47.2980   18.6580 C   0  0  0  0  0  0  0  0  0  0  0  0
   46.8570   48.5300   18.8660 C   0  0  0  0  0  0  0  0  0  0  0  0
   48.6340   54.6450   19.2080 C   0  0  0  0  0  0  0  0  0  0  0  0
   49.6510   54.3790   20.1770 O   0  0  0  0  0  0  0  0  0  0  0  0
   52.9630   58.6870   21.6560 C   0  0  0  0  0  0  0  0  0  0  0  0
   52.0760   57.5340   21.2610 C   0  0  0  0  0  0  0  0  0  0  0  0
   50.7330   57.5550   21.5850 C   0  0  0  0  0  0  0  0  0  0  0  0
   49.9200   56.4970   21.2280 C   0  0  0  0  0  0  0  0  0  0  0  0
   50.4490   55.4180   20.5340 C   0  0  0  0  0  0  0  0  0  0  0  0
   51.7970   55.4030   20.2060 C   0  0  0  0  0  0  0  0  0  0  0  0
   52.3770   54.2340   19.4530 C   0  0  0  0  0  0  0  0  0  0  0  0
   52.6080   56.4610   20.5690 C   0  0  0  0  0  0  0  0  0  0  0  0
  1  2  1  0  0  0  0
  1 17  1  0  0  0  0
  2  3  1  0  0  0  0
  4  1  2  0  0  0  0
  5  2  1  0  0  0  0
  6  5  1  0  0  0  0
  7  5  1  0  0  0  0
  7  8  1  0  0  0  0
  8  9  1  0  0  0  0
 10  7  2  0  0  0  0
 11  8  1  0  0  0  0
 11 16  1  0  0  0  0
 12 11  1  0  0  0  0
 13 12  1  0  0  0  0
 13 14  1  0  0  0  0
 14 15  1  0  0  0  0
 15 16  1  0  0  0  0
 17 18  1  0  0  0  0
 18 23  1  0  0  0  0
 20 21  1  0  0  0  0
 20 19  1  0  0  0  0
 22 21  2  0  0  0  0
 23 22  1  0  0  0  0
 24 23  2  0  0  0  0
 24 26  1  0  0  0  0
 25 24  1  0  0  0  0
 26 20  2  0  0  0  0
M  END
>  <MODEL>
8

>  <REMARK>
  Name = ZINC12403343
                            x       y       z     vdW  Elec       q    Type
                         _______ _______ _______ _____ _____    ______ ____

>  <TORSDO>
F 5

>  <minimizedAffinity>
-8.159845103712513

$$$$
ZINC12403343
 OpenBabel10211214053D

 26 27  0  0  0  0  0  0  0  0999 V2000
   50.4780   51.5040   17.3390 C   0  0  0  0  0  0  0  0  0  0  0  0
   50.2370   52.7670   17.7470 N   0  0  0  0  0  0  0  0  0  0  0  0
   49.3640   53.3130   17.3610 H   0  0  0  0  0  0  0  0  0  0  0  0
   51.4400   50.9020   17.7650 O   0  0  0  0  0  0  0  0  0  0  0  0
   51.1000   53.3810   18.6640 N   0  0  0  0  0  0  0  0  0  0  0  0
   52.0190   52.8690   18.9830 H   0  0  0  0  0  0  0  0  0  0  0  0
   50.8030   54.6010   19.1550 C   0  0  0  0  0  0  0  0  0  0  0  0
   49.6750   55.2280   18.7640 N   0  0  0  0  0  0  0  0  0  0  0  0
   48.9970   54.7450   18.0440 H   0  0  0  0  0  0  0  0  0  0  0  0
   51.5510   55.1350   19.9500 O   0  0  0  0  0  0  0  0  0  0  0  0
   49.3520   56.5540   19.2970 C   0  0  0  0  0  0  0  0  0  0  0  0
   48.8850   56.4200   20.7490 C   0  0  0  0  0  0  0  0  0  0  0  0
   48.5470   57.8030   21.3060 C   0  0  0  0  0  0  0  0  0  0  0  0
   47.4330   58.4330   20.4670 C   0  0  0  0  0  0  0  0  0  0  0  0
   47.9000   58.5670   19.0170 C   0  0  0  0  0  0  0  0  0  0  0  0
   48.2370   57.1840   18.4600 C   0  0  0  0  0  0  0  0  0  0  0  0
   49.5500   50.8420   16.3530 C   0  0  0  0  0  0  0  0  0  0  0  0
   49.4090   49.4590   16.6860 O   0  0  0  0  0  0  0  0  0  0  0  0
   44.3510   47.7670   18.4940 C   0  0  0  0  0  0  0  0  0  0  0  0
   45.7040   48.2200   18.0100 C   0  0  0  0  0  0  0  0  0  0  0  0
   45.8840   48.5590   16.6820 C   0  0  0  0  0  0  0  0  0  0  0  0
   47.1250   48.9690   16.2340 C   0  0  0  0  0  0  0  0  0  0  0  0
   48.1890   49.0510   17.1210 C   0  0  0  0  0  0  0  0  0  0  0  0
   48.0040   48.7150   18.4540 C   0  0  0  0  0  0  0  0  0  0  0  0
   49.1570   48.8020   19.4210 C   0  0  0  0  0  0  0  0  0  0  0  0
   46.7620   48.3010   18.8960 C   0  0  0  0  0  0  0  0  0  0  0  0
  1  2  1  0  0  0  0
  1  4  2  0  0  0  0
  2  5  1  0  0  0  0
  3  2  1  0  0  0  0
  5  6  1  0  0  0  0
  5  7  1  0  0  0  0
  7 10  2  0  0  0  0
  8  7  1  0  0  0  0
  8 11  1  0  0  0  0
  9  8  1  0  0  0  0
 11 12  1  0  0  0  0
 12 13  1  0  0  0  0
 14 13  1  0  0  0  0
 15 14  1  0  0  0  0
 16 15  1  0  0  0  0
 16 11  1  0  0  0  0
 17 18  1  0  0  0  0
 17  1  1  0  0  0  0
 18 23  1  0  0  0  0
 20 19  1  0  0  0  0
 20 26  2  0  0  0  0
 21 20  1  0  0  0  0
 22 21  2  0  0  0  0
 22 23  1  0  0  0  0
 23 24  2  0  0  0  0
 24 26  1  0  0  0  0
 24 25  1  0  0  0  0
M  END
>  <MODEL>
9

>  <REMARK>
  Name = ZINC12403343
                            x       y       z     vdW  Elec       q    Type
                         _______ _______ _______ _____ _____    ______ ____

>  <TORSDO>
F 5

>  <minimizedAffinity>
-8.0488269762452642

$$$$
ZINC66136097
 OpenBabel10211214063D

 26 27  0  0  0  0  0  0  0  0999 V2000
   50.5980   54.2040   20.3180 C   0  0  0  0  0  0  0  0  0  0  0  0
   51.3450   54.3170   21.4980 C   0  0  0  0  0  0  0  0  0  0  0  0
   51.4550   55.6400   22.2100 C   0  0  0  0  0  0  0  0  0  0  0  0
   51.9520   53.2460   21.9770 N   0  0  0  0  0  0  0  0  0  0  0  0
   51.8600   52.0770   21.3560 C   0  0  0  0  0  0  0  0  0  0  0  0
   51.1620   51.9290   20.2360 N   0  0  0  0  0  0  0  0  0  0  0  0
   50.5230   52.9500   19.6970 C   0  0  0  0  0  0  0  0  0  0  0  0
   48.6630   55.6940   20.1670 N   0  0  0  0  0  0  0  0  0  0  0  0
   48.2280   55.1550   20.8450 H   0  0  0  0  0  0  0  0  0  0  0  0
   49.9050   55.3750   19.7470 C   0  0  0  0  0  0  0  0  0  0  0  0
   50.4510   56.0500   18.8970 O   0  0  0  0  0  0  0  0  0  0  0  0
   47.6930   57.8730   20.7080 C   0  0  0  0  0  0  0  0  0  0  0  0
   47.9750   56.8560   19.5990 C   0  0  0  0  0  0  0  0  0  0  0  0
   52.5080   50.9830   21.8890 N   0  0  0  0  0  0  0  0  0  0  0  0
   52.0930   50.1080   21.8530 H   0  0  0  0  0  0  0  0  0  0  0  0
   53.3810   51.0900   22.3000 H   0  0  0  0  0  0  0  0  0  0  0  0
   49.7280   52.7710   18.4290 C   0  0  0  0  0  0  0  0  0  0  0  0
   49.8400   51.4180   17.9850 O   0  0  0  0  0  0  0  0  0  0  0  0
   48.6920   50.6930   17.9160 C   0  0  0  0  0  0  0  0  0  0  0  0
   47.6090   51.1760   17.1960 C   0  0  0  0  0  0  0  0  0  0  0  0
   46.4440   50.4390   17.1270 C   0  0  0  0  0  0  0  0  0  0  0  0
   46.3540   49.2200   17.7770 C   0  0  0  0  0  0  0  0  0  0  0  0
   44.8870   48.2960   17.6890 Cl  0  0  0  0  0  0  0  0  0  0  0  0
   47.4330   48.7380   18.4960 C   0  0  0  0  0  0  0  0  0  0  0  0
   48.6040   49.4690   18.5620 C   0  0  0  0  0  0  0  0  0  0  0  0
   49.7810   48.9400   19.3400 C   0  0  0  0  0  0  0  0  0  0  0  0
  1  2  2  0  0  0  0
  2  4  1  0  0  0  0
  2  3  1  0  0  0  0
  5 14  1  0  0  0  0
  5  4  2  0  0  0  0
  6  5  1  0  0  0  0
  7  6  2  0  0  0  0
  7  1  1  0  0  0  0
  8  9  1  0  0  0  0
 10  8  1  0  0  0  0
 10  1  1  0  0  0  0
 11 10  2  0  0  0  0
 13  8  1  0  0  0  0
 13 12  1  0  0  0  0
 14 16  1  0  0  0  0
 15 14  1  0  0  0  0
 17  7  1  0  0  0  0
 18 17  1  0  0  0  0
 19 18  1  0  0  0  0
 19 25  2  0  0  0  0
 20 19  1  0  0  0  0
 21 20  2  0  0  0  0
 21 22  1  0  0  0  0
 22 24  2  0  0  0  0
 23 22  1  0  0  0  0
 24 25  1  0  0  0  0
 25 26  1  0  0  0  0
M  END
>  <MODEL>
1

>  <REMARK>
  Name = ZINC66136097
                            x       y       z     vdW  Elec       q    Type
                         _______ _______ _______ _____ _____    ______ ____

>  <TORSDO>
F 6

>  <minimizedAffinity>
-8.8491122281954908

$$$$
ZINC66136097
 OpenBabel10211214063D

 26 27  0  0  0  0  0  0  0  0999 V2000
   50.6630   54.3410   20.4550 C   0  0  0  0  0  0  0  0  0  0  0  0
   51.3710   54.3500   21.6630 C   0  0  0  0  0  0  0  0  0  0  0  0
   51.4560   55.6060   22.4910 C   0  0  0  0  0  0  0  0  0  0  0  0
   51.9640   53.2410   22.0670 N   0  0  0  0  0  0  0  0  0  0  0  0
   51.8940   52.1300   21.3440 C   0  0  0  0  0  0  0  0  0  0  0  0
   51.2330   52.0810   20.1940 N   0  0  0  0  0  0  0  0  0  0  0  0
   50.6100   53.1450   19.7250 C   0  0  0  0  0  0  0  0  0  0  0  0
   48.6930   55.7800   20.2740 N   0  0  0  0  0  0  0  0  0  0  0  0
   48.2080   55.1410   20.8200 H   0  0  0  0  0  0  0  0  0  0  0  0
   49.9860   55.5570   19.9640 C   0  0  0  0  0  0  0  0  0  0  0  0
   50.5940   56.3580   19.2810 O   0  0  0  0  0  0  0  0  0  0  0  0
   47.9300   58.0120   20.9210 C   0  0  0  0  0  0  0  0  0  0  0  0
   48.0210   56.9870   19.7870 C   0  0  0  0  0  0  0  0  0  0  0  0
   52.5270   50.9930   21.8020 N   0  0  0  0  0  0  0  0  0  0  0  0
   52.0460   50.1520   21.8380 H   0  0  0  0  0  0  0  0  0  0  0  0
   53.4530   51.0360   22.0870 H   0  0  0  0  0  0  0  0  0  0  0  0
   49.8570   53.0770   18.4210 C   0  0  0  0  0  0  0  0  0  0  0  0
   50.0530   51.7940   17.8250 O   0  0  0  0  0  0  0  0  0  0  0  0
   49.0100   50.9240   17.8750 C   0  0  0  0  0  0  0  0  0  0  0  0
   49.0860   49.7940   18.6780 C   0  0  0  0  0  0  0  0  0  0  0  0
   48.0260   48.9120   18.7280 C   0  0  0  0  0  0  0  0  0  0  0  0
   46.8880   49.1520   17.9780 C   0  0  0  0  0  0  0  0  0  0  0  0
   45.5560   48.0400   18.0420 Cl  0  0  0  0  0  0  0  0  0  0  0  0
   46.8100   50.2770   17.1770 C   0  0  0  0  0  0  0  0  0  0  0  0
   47.8670   51.1670   17.1280 C   0  0  0  0  0  0  0  0  0  0  0  0
   47.7790   52.3950   16.2610 C   0  0  0  0  0  0  0  0  0  0  0  0
  1  2  2  0  0  0  0
  2  4  1  0  0  0  0
  2  3  1  0  0  0  0
  5 14  1  0  0  0  0
  5  4  2  0  0  0  0
  6  5  1  0  0  0  0
  7  6  2  0  0  0  0
  7  1  1  0  0  0  0
  8  9  1  0  0  0  0
 10  8  1  0  0  0  0
 10  1  1  0  0  0  0
 11 10  2  0  0  0  0
 13  8  1  0  0  0  0
 13 12  1  0  0  0  0
 14 15  1  0  0  0  0
 14 16  1  0  0  0  0
 17  7  1  0  0  0  0
 18 19  1  0  0  0  0
 18 17  1  0  0  0  0
 19 20  2  0  0  0  0
 20 21  1  0  0  0  0
 22 23  1  0  0  0  0
 22 21  2  0  0  0  0
 24 22  1  0  0  0  0
 25 24  2  0  0  0  0
 25 19  1  0  0  0  0
 26 25  1  0  0  0  0
M  END
>  <MODEL>
2

>  <REMARK>
  Name = ZINC66136097
                            x       y       z     vdW  Elec       q    Type
                         _______ _______ _______ _____ _____    ______ ____

>  <TORSDO>
F 6

>  <minimizedAffinity>
-8.4039972515795451

$$$$
ZINC66136097
 OpenBabel10211214063D

 26 27  0  0  0  0  0  0  0  0999 V2000
   50.5120   52.8950   19.9090 C   0  0  0  0  0  0  0  0  0  0  0  0
   51.1970   52.5620   21.0850 C   0  0  0  0  0  0  0  0  0  0  0  0
   51.5800   53.6300   22.0760 C   0  0  0  0  0  0  0  0  0  0  0  0
   51.5030   51.2980   21.3120 N   0  0  0  0  0  0  0  0  0  0  0  0
   51.1700   50.3500   20.4440 C   0  0  0  0  0  0  0  0  0  0  0  0
   50.5210   50.6250   19.3200 N   0  0  0  0  0  0  0  0  0  0  0  0
   50.1750   51.8630   19.0230 C   0  0  0  0  0  0  0  0  0  0  0  0
   48.9580   54.7810   20.0130 N   0  0  0  0  0  0  0  0  0  0  0  0
   48.3390   54.2110   20.4950 H   0  0  0  0  0  0  0  0  0  0  0  0
   50.1510   54.2950   19.6140 C   0  0  0  0  0  0  0  0  0  0  0  0
   50.9270   55.0090   19.0120 O   0  0  0  0  0  0  0  0  0  0  0  0
   48.8130   57.0270   20.9710 C   0  0  0  0  0  0  0  0  0  0  0  0
   48.5990   56.1710   19.7200 C   0  0  0  0  0  0  0  0  0  0  0  0
   51.5080   49.0420   20.7190 N   0  0  0  0  0  0  0  0  0  0  0  0
   50.8480   48.3390   20.6200 H   0  0  0  0  0  0  0  0  0  0  0  0
   52.4070   48.8250   21.0110 H   0  0  0  0  0  0  0  0  0  0  0  0
   49.4320   52.1640   17.7460 C   0  0  0  0  0  0  0  0  0  0  0  0
   49.6050   51.0820   16.8290 O   0  0  0  0  0  0  0  0  0  0  0  0
   48.4980   50.3590   16.5110 C   0  0  0  0  0  0  0  0  0  0  0  0
   47.3910   50.3810   17.3480 C   0  0  0  0  0  0  0  0  0  0  0  0
   46.2680   49.6460   17.0240 C   0  0  0  0  0  0  0  0  0  0  0  0
   46.2450   48.8880   15.8660 C   0  0  0  0  0  0  0  0  0  0  0  0
   44.8320   47.9660   15.4610 Cl  0  0  0  0  0  0  0  0  0  0  0  0
   47.3480   48.8660   15.0310 C   0  0  0  0  0  0  0  0  0  0  0  0
   48.4720   49.6050   15.3480 C   0  0  0  0  0  0  0  0  0  0  0  0
   49.6700   49.5850   14.4340 C   0  0  0  0  0  0  0  0  0  0  0  0
  1  2  2  0  0  0  0
  2  4  1  0  0  0  0
  2  3  1  0  0  0  0
  5 14  1  0  0  0  0
  5  4  2  0  0  0  0
  6  5  1  0  0  0  0
  7  6  2  0  0  0  0
  7  1  1  0  0  0  0
  8  9  1  0  0  0  0
 10  1  1  0  0  0  0
 10  8  1  0  0  0  0
 11 10  2  0  0  0  0
 13  8  1  0  0  0  0
 13 12  1  0  0  0  0
 14 16  1  0  0  0  0
 15 14  1  0  0  0  0
 17  7  1  0  0  0  0
 18 17  1  0  0  0  0
 19 18  1  0  0  0  0
 19 20  2  0  0  0  0
 21 20  1  0  0  0  0
 22 21  2  0  0  0  0
 23 22  1  0  0  0  0
 24 25  2  0  0  0  0
 24 22  1  0  0  0  0
 25 19  1  0  0  0  0
 26 25  1  0  0  0  0
M  END
>  <MODEL>
3

>  <REMARK>
  Name = ZINC66136097
                            x       y       z     vdW  Elec       q    Type
                         _______ _______ _______ _____ _____    ______ ____

>  <TORSDO>
F 6

>  <minimizedAffinity>
-7.893462373326571

$$$$
ZINC66136097
 OpenBabel10211214063D

 26 27  0  0  0  0  0  0  0  0999 V2000
   51.1140   53.6240   20.1060 C   0  0  0  0  0  0  0  0  0  0  0  0
   51.5780   52.9930   21.2670 C   0  0  0  0  0  0  0  0  0  0  0  0
   51.8150   51.5050   21.2860 C   0  0  0  0  0  0  0  0  0  0  0  0
   51.8030   53.7210   22.3450 N   0  0  0  0  0  0  0  0  0  0  0  0
   51.5960   55.0310   22.3380 C   0  0  0  0  0  0  0  0  0  0  0  0
   51.1570   55.6660   21.2580 N   0  0  0  0  0  0  0  0  0  0  0  0
   50.9130   55.0110   20.1390 C   0  0  0  0  0  0  0  0  0  0  0  0
   49.5790   52.5550   18.5290 N   0  0  0  0  0  0  0  0  0  0  0  0
   48.8420   52.8520   19.0840 H   0  0  0  0  0  0  0  0  0  0  0  0
   50.8480   52.8500   18.8780 C   0  0  0  0  0  0  0  0  0  0  0  0
   51.7720   52.4790   18.1820 O   0  0  0  0  0  0  0  0  0  0  0  0
   48.2240   52.4840   16.4940 C   0  0  0  0  0  0  0  0  0  0  0  0
   49.3150   51.7870   17.3090 C   0  0  0  0  0  0  0  0  0  0  0  0
   51.8440   55.7550   23.4850 N   0  0  0  0  0  0  0  0  0  0  0  0
   52.7570   55.9060   23.7760 H   0  0  0  0  0  0  0  0  0  0  0  0
   51.1050   56.1150   24.0000 H   0  0  0  0  0  0  0  0  0  0  0  0
   50.4220   55.7420   18.9160 C   0  0  0  0  0  0  0  0  0  0  0  0
   48.9930   55.7570   18.9130 O   0  0  0  0  0  0  0  0  0  0  0  0
   48.3880   56.9710   19.0000 C   0  0  0  0  0  0  0  0  0  0  0  0
   48.2490   57.5910   20.2340 C   0  0  0  0  0  0  0  0  0  0  0  0
   47.6340   58.8240   20.3200 C   0  0  0  0  0  0  0  0  0  0  0  0
   47.1560   59.4430   19.1790 C   0  0  0  0  0  0  0  0  0  0  0  0
   46.3840   60.9930   19.2900 Cl  0  0  0  0  0  0  0  0  0  0  0  0
   47.2940   58.8260   17.9480 C   0  0  0  0  0  0  0  0  0  0  0  0
   47.9140   57.5950   17.8550 C   0  0  0  0  0  0  0  0  0  0  0  0
   48.0700   56.9270   16.5130 C   0  0  0  0  0  0  0  0  0  0  0  0
  1  7  2  0  0  0  0
  1  2  1  0  0  0  0
  2  3  1  0  0  0  0
  2  4  2  0  0  0  0
  5  4  1  0  0  0  0
  5 14  1  0  0  0  0
  6  5  2  0  0  0  0
  7  6  1  0  0  0  0
  8 10  1  0  0  0  0
  8  9  1  0  0  0  0
 10  1  1  0  0  0  0
 11 10  2  0  0  0  0
 12 13  1  0  0  0  0
 13  8  1  0  0  0  0
 14 15  1  0  0  0  0
 14 16  1  0  0  0  0
 17  7  1  0  0  0  0
 18 17  1  0  0  0  0
 18 19  1  0  0  0  0
 19 20  2  0  0  0  0
 20 21  1  0  0  0  0
 22 23  1  0  0  0  0
 22 21  2  0  0  0  0
 24 22  1  0  0  0  0
 25 24  2  0  0  0  0
 25 19  1  0  0  0  0
 26 25  1  0  0  0  0
M  END
>  <MODEL>
4

>  <REMARK>
  Name = ZINC66136097
                            x       y       z     vdW  Elec       q    Type
                         _______ _______ _______ _____ _____    ______ ____

>  <TORSDO>
F 6

>  <minimizedAffinity>
-7.7880451634604348

$$$$
ZINC66136097
 OpenBabel10211214063D

 26 27  0  0  0  0  0  0  0  0999 V2000
   49.6050   50.8250   18.5020 C   0  0  0  0  0  0  0  0  0  0  0  0
   49.8690   49.6400   19.1990 C   0  0  0  0  0  0  0  0  0  0  0  0
   49.2530   48.3380   18.7570 C   0  0  0  0  0  0  0  0  0  0  0  0
   50.6660   49.6800   20.2510 N   0  0  0  0  0  0  0  0  0  0  0  0
   51.2130   50.8220   20.6480 C   0  0  0  0  0  0  0  0  0  0  0  0
   50.9880   51.9660   20.0140 N   0  0  0  0  0  0  0  0  0  0  0  0
   50.2070   52.0080   18.9510 C   0  0  0  0  0  0  0  0  0  0  0  0
   49.2070   50.4830   16.1120 N   0  0  0  0  0  0  0  0  0  0  0  0
   50.1400   50.2320   16.0190 H   0  0  0  0  0  0  0  0  0  0  0  0
   48.7200   50.8280   17.3210 C   0  0  0  0  0  0  0  0  0  0  0  0
   47.5520   51.1410   17.4380 O   0  0  0  0  0  0  0  0  0  0  0  0
   47.8130   49.0670   14.6870 C   0  0  0  0  0  0  0  0  0  0  0  0
   48.3280   50.4850   14.9400 C   0  0  0  0  0  0  0  0  0  0  0  0
   52.0410   50.8200   21.7510 N   0  0  0  0  0  0  0  0  0  0  0  0
   52.3300   51.6590   22.1420 H   0  0  0  0  0  0  0  0  0  0  0  0
   52.3330   49.9790   22.1360 H   0  0  0  0  0  0  0  0  0  0  0  0
   49.9630   53.3110   18.2330 C   0  0  0  0  0  0  0  0  0  0  0  0
   50.8640   54.3040   18.7290 O   0  0  0  0  0  0  0  0  0  0  0  0
   50.3330   55.2890   19.5000 C   0  0  0  0  0  0  0  0  0  0  0  0
   48.9560   55.4440   19.5780 C   0  0  0  0  0  0  0  0  0  0  0  0
   48.4190   56.4460   20.3620 C   0  0  0  0  0  0  0  0  0  0  0  0
   49.2520   57.2960   21.0680 C   0  0  0  0  0  0  0  0  0  0  0  0
   48.5730   58.5550   22.0520 Cl  0  0  0  0  0  0  0  0  0  0  0  0
   50.6240   57.1440   20.9900 C   0  0  0  0  0  0  0  0  0  0  0  0
   51.1670   56.1380   20.2130 C   0  0  0  0  0  0  0  0  0  0  0  0
   52.6620   55.9690   20.1340 C   0  0  0  0  0  0  0  0  0  0  0  0
  1  7  2  0  0  0  0
  1  2  1  0  0  0  0
  2  4  2  0  0  0  0
  3  2  1  0  0  0  0
  4  5  1  0  0  0  0
  5 14  1  0  0  0  0
  6  5  2  0  0  0  0
  7  6  1  0  0  0  0
  8 10  1  0  0  0  0
  9  8  1  0  0  0  0
 10 11  2  0  0  0  0
 10  1  1  0  0  0  0
 12 13  1  0  0  0  0
 13  8  1  0  0  0  0
 14 16  1  0  0  0  0
 14 15  1  0  0  0  0
 17 18  1  0  0  0  0
 17  7  1  0  0  0  0
 18 19  1  0  0  0  0
 19 20  2  0  0  0  0
 19 25  1  0  0  0  0
 20 21  1  0  0  0  0
 21 22  2  0  0  0  0
 22 23  1  0  0  0  0
 24 22  1  0  0  0  0
 25 24  2  0  0  0  0
 26 25  1  0  0  0  0
M  END
>  <MODEL>
5

>  <REMARK>
  Name = ZINC66136097
                            x       y       z     vdW  Elec       q    Type
                         _______ _______ _______ _____ _____    ______ ____

>  <TORSDO>
F 6

>  <minimizedAffinity>
-7.6184327818888642

$$$$
ZINC66136097
 OpenBabel10211214063D

 26 27  0  0  0  0  0  0  0  0999 V2000
   48.7090   49.3190   17.1100 C   0  0  0  0  0  0  0  0  0  0  0  0
   48.6040   48.2390   16.2260 C   0  0  0  0  0  0  0  0  0  0  0  0
   48.7680   46.8250   16.7220 C   0  0  0  0  0  0  0  0  0  0  0  0
   48.3610   48.4770   14.9500 N   0  0  0  0  0  0  0  0  0  0  0  0
   48.2150   49.7180   14.5050 C   0  0  0  0  0  0  0  0  0  0  0  0
   48.3070   50.7680   15.3110 N   0  0  0  0  0  0  0  0  0  0  0  0
   48.5430   50.6140   16.6000 C   0  0  0  0  0  0  0  0  0  0  0  0
   50.2440   49.1780   19.0110 N   0  0  0  0  0  0  0  0  0  0  0  0
   50.9730   49.3790   18.4030 H   0  0  0  0  0  0  0  0  0  0  0  0
   48.9810   49.1000   18.5440 C   0  0  0  0  0  0  0  0  0  0  0  0
   48.0670   48.8500   19.3050 O   0  0  0  0  0  0  0  0  0  0  0  0
   51.0030   50.2660   21.0650 C   0  0  0  0  0  0  0  0  0  0  0  0
   50.5130   48.9610   20.4340 C   0  0  0  0  0  0  0  0  0  0  0  0
   47.9610   49.9240   13.1650 N   0  0  0  0  0  0  0  0  0  0  0  0
   47.0620   49.8130   12.8190 H   0  0  0  0  0  0  0  0  0  0  0  0
   48.6820   50.1800   12.5690 H   0  0  0  0  0  0  0  0  0  0  0  0
   48.6390   51.8130   17.5090 C   0  0  0  0  0  0  0  0  0  0  0  0
   50.0060   52.2090   17.6330 O   0  0  0  0  0  0  0  0  0  0  0  0
   50.3100   53.0720   18.6370 C   0  0  0  0  0  0  0  0  0  0  0  0
   49.3010   53.7840   19.2700 C   0  0  0  0  0  0  0  0  0  0  0  0
   49.6120   54.6610   20.2900 C   0  0  0  0  0  0  0  0  0  0  0  0
   50.9280   54.8320   20.6810 C   0  0  0  0  0  0  0  0  0  0  0  0
   51.3160   55.9350   21.9640 Cl  0  0  0  0  0  0  0  0  0  0  0  0
   51.9360   54.1240   20.0500 C   0  0  0  0  0  0  0  0  0  0  0  0
   51.6290   53.2400   19.0330 C   0  0  0  0  0  0  0  0  0  0  0  0
   52.7260   52.4640   18.3510 C   0  0  0  0  0  0  0  0  0  0  0  0
  1 10  1  0  0  0  0
  2  3  1  0  0  0  0
  2  1  2  0  0  0  0
  4  2  1  0  0  0  0
  5  4  2  0  0  0  0
  5  6  1  0  0  0  0
  6  7  2  0  0  0  0
  7  1  1  0  0  0  0
  7 17  1  0  0  0  0
  8 13  1  0  0  0  0
  9  8  1  0  0  0  0
 10  8  1  0  0  0  0
 10 11  2  0  0  0  0
 13 12  1  0  0  0  0
 14  5  1  0  0  0  0
 15 14  1  0  0  0  0
 16 14  1  0  0  0  0
 17 18  1  0  0  0  0
 18 19  1  0  0  0  0
 19 25  2  0  0  0  0
 19 20  1  0  0  0  0
 20 21  2  0  0  0  0
 21 22  1  0  0  0  0
 22 23  1  0  0  0  0
 24 22  2  0  0  0  0
 25 24  1  0  0  0  0
 26 25  1  0  0  0  0
M  END
>  <MODEL>
6

>  <REMARK>
  Name = ZINC66136097
                            x       y       z     vdW  Elec       q    Type
                         _______ _______ _______ _____ _____    ______ ____

>  <TORSDO>
F 6

>  <minimizedAffinity>
-7.6055439084126384

$$$$
ZINC66136097
 OpenBabel10211214063D

 26 27  0  0  0  0  0  0  0  0999 V2000
   49.9440   56.1750   19.6010 C   0  0  0  0  0  0  0  0  0  0  0  0
   49.3360   57.1310   20.4240 C   0  0  0  0  0  0  0  0  0  0  0  0
   47.8490   57.3650   20.3550 C   0  0  0  0  0  0  0  0  0  0  0  0
   50.0840   57.8240   21.2620 N   0  0  0  0  0  0  0  0  0  0  0  0
   51.3950   57.6250   21.3290 C   0  0  0  0  0  0  0  0  0  0  0  0
   52.0080   56.7290   20.5670 N   0  0  0  0  0  0  0  0  0  0  0  0
   51.3290   55.9920   19.7070 C   0  0  0  0  0  0  0  0  0  0  0  0
   48.8470   54.0930   18.9310 N   0  0  0  0  0  0  0  0  0  0  0  0
   49.1550   53.6950   19.7600 H   0  0  0  0  0  0  0  0  0  0  0  0
   49.1470   55.3770   18.6490 C   0  0  0  0  0  0  0  0  0  0  0  0
   48.7600   55.8780   17.6110 O   0  0  0  0  0  0  0  0  0  0  0  0
   48.9710   52.3230   17.2490 C   0  0  0  0  0  0  0  0  0  0  0  0
   48.0550   53.3020   17.9860 C   0  0  0  0  0  0  0  0  0  0  0  0
   52.1410   58.3700   22.2180 N   0  0  0  0  0  0  0  0  0  0  0  0
   52.8350   57.9450   22.7450 H   0  0  0  0  0  0  0  0  0  0  0  0
   51.9700   59.3200   22.3160 H   0  0  0  0  0  0  0  0  0  0  0  0
   52.0350   54.9720   18.8500 C   0  0  0  0  0  0  0  0  0  0  0  0
   52.7630   54.0700   19.6860 O   0  0  0  0  0  0  0  0  0  0  0  0
   52.2480   52.8230   19.8450 C   0  0  0  0  0  0  0  0  0  0  0  0
   52.3230   51.9030   18.8080 C   0  0  0  0  0  0  0  0  0  0  0  0
   51.7990   50.6370   18.9720 C   0  0  0  0  0  0  0  0  0  0  0  0
   51.1990   50.2830   20.1670 C   0  0  0  0  0  0  0  0  0  0  0  0
   50.5400   48.6890   20.3690 Cl  0  0  0  0  0  0  0  0  0  0  0  0
   51.1220   51.1990   21.2010 C   0  0  0  0  0  0  0  0  0  0  0  0
   51.6510   52.4660   21.0450 C   0  0  0  0  0  0  0  0  0  0  0  0
   51.5740   53.4600   22.1740 C   0  0  0  0  0  0  0  0  0  0  0  0
  1  7  2  0  0  0  0
  1  2  1  0  0  0  0
  2  4  2  0  0  0  0
  3  2  1  0  0  0  0
  4  5  1  0  0  0  0
  5 14  1  0  0  0  0
  6  5  2  0  0  0  0
  7  6  1  0  0  0  0
  8  9  1  0  0  0  0
 10  8  1  0  0  0  0
 10  1  1  0  0  0  0
 11 10  2  0  0  0  0
 12 13  1  0  0  0  0
 13  8  1  0  0  0  0
 14 16  1  0  0  0  0
 14 15  1  0  0  0  0
 17 18  1  0  0  0  0
 17  7  1  0  0  0  0
 18 19  1  0  0  0  0
 19 25  2  0  0  0  0
 20 21  2  0  0  0  0
 20 19  1  0  0  0  0
 21 22  1  0  0  0  0
 22 23  1  0  0  0  0
 22 24  2  0  0  0  0
 25 24  1  0  0  0  0
 25 26  1  0  0  0  0
M  END
>  <MODEL>
7

>  <REMARK>
  Name = ZINC66136097
                            x       y       z     vdW  Elec       q    Type
                         _______ _______ _______ _____ _____    ______ ____

>  <TORSDO>
F 6

>  <minimizedAffinity>
-7.4927765769472332

$$$$
ZINC66136097
 OpenBabel10211214063D

 26 27  0  0  0  0  0  0  0  0999 V2000
   50.0360   51.5610   19.0920 C   0  0  0  0  0  0  0  0  0  0  0  0
   50.6830   50.7330   20.0170 C   0  0  0  0  0  0  0  0  0  0  0  0
   50.8140   49.2540   19.7600 C   0  0  0  0  0  0  0  0  0  0  0  0
   51.1760   51.2670   21.1200 N   0  0  0  0  0  0  0  0  0  0  0  0
   51.0650   52.5680   21.3550 C   0  0  0  0  0  0  0  0  0  0  0  0
   50.4600   53.3860   20.5030 N   0  0  0  0  0  0  0  0  0  0  0  0
   49.9450   52.9300   19.3760 C   0  0  0  0  0  0  0  0  0  0  0  0
   50.2630   50.8000   16.7780 N   0  0  0  0  0  0  0  0  0  0  0  0
   51.2080   51.0140   16.8280 H   0  0  0  0  0  0  0  0  0  0  0  0
   49.4680   51.0080   17.8470 C   0  0  0  0  0  0  0  0  0  0  0  0
   48.2850   50.7390   17.7860 O   0  0  0  0  0  0  0  0  0  0  0  0
   50.8350   49.7810   14.6300 C   0  0  0  0  0  0  0  0  0  0  0  0
   49.7000   50.2510   15.5430 C   0  0  0  0  0  0  0  0  0  0  0  0
   51.5950   53.0860   22.5180 N   0  0  0  0  0  0  0  0  0  0  0  0
   52.3040   52.6140   22.9810 H   0  0  0  0  0  0  0  0  0  0  0  0
   51.2580   53.9250   22.8720 H   0  0  0  0  0  0  0  0  0  0  0  0
   49.2650   53.8690   18.4120 C   0  0  0  0  0  0  0  0  0  0  0  0
   49.7990   55.1840   18.5720 O   0  0  0  0  0  0  0  0  0  0  0  0
   48.9790   56.2250   18.2660 C   0  0  0  0  0  0  0  0  0  0  0  0
   48.5710   56.4250   16.9550 C   0  0  0  0  0  0  0  0  0  0  0  0
   47.7390   57.4830   16.6470 C   0  0  0  0  0  0  0  0  0  0  0  0
   47.3120   58.3430   17.6440 C   0  0  0  0  0  0  0  0  0  0  0  0
   46.2650   59.6720   17.2530 Cl  0  0  0  0  0  0  0  0  0  0  0  0
   47.7180   58.1440   18.9510 C   0  0  0  0  0  0  0  0  0  0  0  0
   48.5460   57.0840   19.2660 C   0  0  0  0  0  0  0  0  0  0  0  0
   48.9830   56.8640   20.6910 C   0  0  0  0  0  0  0  0  0  0  0  0
  1  7  2  0  0  0  0
  1  2  1  0  0  0  0
  2  4  2  0  0  0  0
  3  2  1  0  0  0  0
  4  5  1  0  0  0  0
  5 14  1  0  0  0  0
  6  5  2  0  0  0  0
  7  6  1  0  0  0  0
  8  9  1  0  0  0  0
  8 10  1  0  0  0  0
 10  1  1  0  0  0  0
 11 10  2  0  0  0  0
 12 13  1  0  0  0  0
 13  8  1  0  0  0  0
 14 16  1  0  0  0  0
 14 15  1  0  0  0  0
 17 18  1  0  0  0  0
 17  7  1  0  0  0  0
 19 18  1  0  0  0  0
 19 25  2  0  0  0  0
 20 19  1  0  0  0  0
 21 20  2  0  0  0  0
 21 22  1  0  0  0  0
 22 24  2  0  0  0  0
 23 22  1  0  0  0  0
 24 25  1  0  0  0  0
 25 26  1  0  0  0  0
M  END
>  <MODEL>
8

>  <REMARK>
  Name = ZINC66136097
                            x       y       z     vdW  Elec       q    Type
                         _______ _______ _______ _____ _____    ______ ____

>  <TORSDO>
F 6

>  <minimizedAffinity>
-7.4545053094959268

$$$$
ZINC66136097
 OpenBabel10211214063D

 26 27  0  0  0  0  0  0  0  0999 V2000
   49.7240   52.0470   17.8190 C   0  0  0  0  0  0  0  0  0  0  0  0
   49.5580   53.4030   18.1270 C   0  0  0  0  0  0  0  0  0  0  0  0
   50.3550   54.0390   19.2360 C   0  0  0  0  0  0  0  0  0  0  0  0
   48.6900   54.1160   17.4330 N   0  0  0  0  0  0  0  0  0  0  0  0
   47.9830   53.5640   16.4550 C   0  0  0  0  0  0  0  0  0  0  0  0
   48.1120   52.2830   16.1320 N   0  0  0  0  0  0  0  0  0  0  0  0
   48.9610   51.5050   16.7760 C   0  0  0  0  0  0  0  0  0  0  0  0
   50.3410   50.7160   19.7770 N   0  0  0  0  0  0  0  0  0  0  0  0
   49.4670   50.9080   20.1510 H   0  0  0  0  0  0  0  0  0  0  0  0
   50.6810   51.2110   18.5700 C   0  0  0  0  0  0  0  0  0  0  0  0
   51.7760   50.9700   18.1000 O   0  0  0  0  0  0  0  0  0  0  0  0
   50.7150   48.4800   20.6930 C   0  0  0  0  0  0  0  0  0  0  0  0
   51.2920   49.8870   20.5220 C   0  0  0  0  0  0  0  0  0  0  0  0
   47.0880   54.3440   15.7520 N   0  0  0  0  0  0  0  0  0  0  0  0
   47.3280   55.2480   15.4980 H   0  0  0  0  0  0  0  0  0  0  0  0
   46.2190   53.9860   15.5130 H   0  0  0  0  0  0  0  0  0  0  0  0
   49.1050   50.0530   16.3970 C   0  0  0  0  0  0  0  0  0  0  0  0
   47.8510   49.5570   15.9260 O   0  0  0  0  0  0  0  0  0  0  0  0
   47.0600   48.9200   16.8300 C   0  0  0  0  0  0  0  0  0  0  0  0
   47.4290   48.8780   18.1670 C   0  0  0  0  0  0  0  0  0  0  0  0
   46.6240   48.2310   19.0830 C   0  0  0  0  0  0  0  0  0  0  0  0
   45.4520   47.6230   18.6710 C   0  0  0  0  0  0  0  0  0  0  0  0
   44.4420   46.8100   19.8250 Cl  0  0  0  0  0  0  0  0  0  0  0  0
   45.0830   47.6640   17.3380 C   0  0  0  0  0  0  0  0  0  0  0  0
   45.8820   48.3160   16.4170 C   0  0  0  0  0  0  0  0  0  0  0  0
   45.4760   48.3660   14.9680 C   0  0  0  0  0  0  0  0  0  0  0  0
  1  2  1  0  0  0  0
  1 10  1  0  0  0  0
  2  3  1  0  0  0  0
  4  2  2  0  0  0  0
  5  4  1  0  0  0  0
  6  5  2  0  0  0  0
  6  7  1  0  0  0  0
  7  1  2  0  0  0  0
  8  9  1  0  0  0  0
  8 13  1  0  0  0  0
 10  8  1  0  0  0  0
 11 10  2  0  0  0  0
 13 12  1  0  0  0  0
 14  5  1  0  0  0  0
 15 14  1  0  0  0  0
 16 14  1  0  0  0  0
 17  7  1  0  0  0  0
 18 17  1  0  0  0  0
 18 19  1  0  0  0  0
 19 20  1  0  0  0  0
 20 21  2  0  0  0  0
 22 21  1  0  0  0  0
 22 23  1  0  0  0  0
 24 22  2  0  0  0  0
 25 19  2  0  0  0  0
 25 24  1  0  0  0  0
 26 25  1  0  0  0  0
M  END
>  <MODEL>
9

>  <REMARK>
  Name = ZINC66136097
                            x       y       z     vdW  Elec       q    Type
                         _______ _______ _______ _____ _____    ______ ____

>  <TORSDO>
F 6

>  <minimizedAffinity>
-7.3843328837782201

$$$$
ZINC14537006
 OpenBabel10211214093D

 38 40  0  0  0  0  0  0  0  0999 V2000
   50.9820   52.8270   18.2080 C   0  0  0  0  0  0  0  0  0  0  0  0
   50.7490   54.0490   18.8060 C   0  0  0  0  0  0  0  0  0  0  0  0
   49.4650   54.5950   18.8000 C   0  0  0  0  0  0  0  0  0  0  0  0
   48.4170   53.8960   18.2000 C   0  0  0  0  0  0  0  0  0  0  0  0
   48.6610   52.6670   17.6070 C   0  0  0  0  0  0  0  0  0  0  0  0
   49.9450   52.1340   17.6120 C   0  0  0  0  0  0  0  0  0  0  0  0
   49.2130   55.9080   19.4350 C   0  0  0  0  0  0  0  0  0  0  0  0
   49.4780   56.0840   20.7450 N   0  0  0  0  0  0  0  0  0  0  0  0
   49.8330   55.3510   21.2720 H   0  0  0  0  0  0  0  0  0  0  0  0
   48.7690   56.8260   18.7750 O   0  0  0  0  0  0  0  0  0  0  0  0
   49.2290   57.3840   21.3730 C   0  0  0  0  0  0  0  0  0  0  0  0
   50.3150   57.6640   22.4140 C   0  0  0  0  0  0  0  0  0  0  0  0
   51.5430   58.0890   21.7370 N   0  0  0  0  0  0  0  0  0  0  0  0
   51.6130   58.9890   21.3790 H   0  0  0  0  0  0  0  0  0  0  0  0
   52.5730   57.2300   21.6090 C   0  0  0  0  0  0  0  0  0  0  0  0
   53.8360   57.6670   20.9120 C   0  0  0  0  0  0  0  0  0  0  0  0
   52.4850   56.1070   22.0560 O   0  0  0  0  0  0  0  0  0  0  0  0
   52.6060   52.1440   18.2110 S   0  0  0  0  0  0  0  0  0  0  0  0
   52.5810   51.0310   17.3290 O   0  0  0  0  0  0  0  0  0  0  0  0
   53.5040   53.2330   18.0380 O   0  0  0  0  0  0  0  0  0  0  0  0
   52.8810   51.5410   19.7280 N   0  0  0  0  0  0  0  0  0  0  0  0
   53.6770   51.8010   20.2170 H   0  0  0  0  0  0  0  0  0  0  0  0
   51.3300   52.4620   21.9270 C   0  0  0  0  0  0  0  0  0  0  0  0
   51.1870   51.0650   21.3790 C   0  0  0  0  0  0  0  0  0  0  0  0
   50.2850   50.1880   21.9500 C   0  0  0  0  0  0  0  0  0  0  0  0
   50.1500   48.9090   21.4450 C   0  0  0  0  0  0  0  0  0  0  0  0
   50.9230   48.4990   20.3740 C   0  0  0  0  0  0  0  0  0  0  0  0
   51.8300   49.3700   19.8020 C   0  0  0  0  0  0  0  0  0  0  0  0
   51.9650   50.6580   20.3040 C   0  0  0  0  0  0  0  0  0  0  0  0
   47.6150   51.9630   17.0040 N   0  0  0  0  0  0  0  0  0  0  0  0
   46.7370   52.3690   16.9280 H   0  0  0  0  0  0  0  0  0  0  0  0
   47.8440   50.6110   16.4890 C   0  0  0  0  0  0  0  0  0  0  0  0
   47.0290   49.6250   17.2860 C   0  0  0  0  0  0  0  0  0  0  0  0
   45.7240   49.3520   16.9220 C   0  0  0  0  0  0  0  0  0  0  0  0
   44.9780   48.4440   17.6500 C   0  0  0  0  0  0  0  0  0  0  0  0
   45.5360   47.8160   18.7490 C   0  0  0  0  0  0  0  0  0  0  0  0
   46.8390   48.0920   19.1160 C   0  0  0  0  0  0  0  0  0  0  0  0
   47.5860   48.9960   18.3850 C   0  0  0  0  0  0  0  0  0  0  0  0
  1 18  1  0  0  0  0
  1  2  2  0  0  0  0
  3  2  1  0  0  0  0
  3  7  1  0  0  0  0
  4  3  2  0  0  0  0
  5  6  2  0  0  0  0
  5  4  1  0  0  0  0
  6  1  1  0  0  0  0
  7  8  1  0  0  0  0
  8  9  1  0  0  0  0
  8 11  1  0  0  0  0
 10  7  2  0  0  0  0
 11 12  1  0  0  0  0
 13 12  1  0  0  0  0
 14 13  1  0  0  0  0
 15 13  1  0  0  0  0
 15 17  2  0  0  0  0
 16 15  1  0  0  0  0
 18 21  1  0  0  0  0
 19 18  2  0  0  0  0
 20 18  2  0  0  0  0
 21 22  1  0  0  0  0
 21 29  1  0  0  0  0
 24 23  1  0  0  0  0
 24 25  2  0  0  0  0
 26 25  1  0  0  0  0
 27 26  2  0  0  0  0
 28 29  2  0  0  0  0
 28 27  1  0  0  0  0
 29 24  1  0  0  0  0
 30  5  1  0  0  0  0
 31 30  1  0  0  0  0
 32 30  1  0  0  0  0
 32 33  1  0  0  0  0
 33 38  1  0  0  0  0
 34 33  2  0  0  0  0
 34 35  1  0  0  0  0
 35 36  2  0  0  0  0
 36 37  1  0  0  0  0
 38 37  2  0  0  0  0
M  END
>  <MODEL>
1

>  <REMARK>
  Name = ZINC14537006
                            x       y       z     vdW  Elec       q    Type
                         _______ _______ _______ _____ _____    ______ ____

>  <TORSDO>
F 10

>  <minimizedAffinity>
-9.2040600501601197

$$$$
ZINC14537006
 OpenBabel10211214093D

 38 40  0  0  0  0  0  0  0  0999 V2000
   49.6360   53.5690   18.0770 C   0  0  0  0  0  0  0  0  0  0  0  0
   49.4610   52.2160   17.8670 C   0  0  0  0  0  0  0  0  0  0  0  0
   48.4920   51.7700   16.9660 C   0  0  0  0  0  0  0  0  0  0  0  0
   47.7130   52.6950   16.2710 C   0  0  0  0  0  0  0  0  0  0  0  0
   47.9020   54.0520   16.4850 C   0  0  0  0  0  0  0  0  0  0  0  0
   48.8650   54.4870   17.3890 C   0  0  0  0  0  0  0  0  0  0  0  0
   48.2970   50.3200   16.7440 C   0  0  0  0  0  0  0  0  0  0  0  0
   47.8230   49.8780   15.5630 N   0  0  0  0  0  0  0  0  0  0  0  0
   47.6090   50.5090   14.8580 H   0  0  0  0  0  0  0  0  0  0  0  0
   48.5650   49.5300   17.6270 O   0  0  0  0  0  0  0  0  0  0  0  0
   47.6300   48.4430   15.3440 C   0  0  0  0  0  0  0  0  0  0  0  0
   46.1400   48.1070   15.4470 C   0  0  0  0  0  0  0  0  0  0  0  0
   45.8820   47.4110   16.7100 N   0  0  0  0  0  0  0  0  0  0  0  0
   46.1200   46.4750   16.8050 H   0  0  0  0  0  0  0  0  0  0  0  0
   45.3110   48.0700   17.7380 C   0  0  0  0  0  0  0  0  0  0  0  0
   45.0460   47.3530   19.0370 C   0  0  0  0  0  0  0  0  0  0  0  0
   45.0140   49.2390   17.6180 O   0  0  0  0  0  0  0  0  0  0  0  0
   50.8540   54.1280   19.2200 S   0  0  0  0  0  0  0  0  0  0  0  0
   51.7070   53.0220   19.4800 O   0  0  0  0  0  0  0  0  0  0  0  0
   51.3430   55.3660   18.7200 O   0  0  0  0  0  0  0  0  0  0  0  0
   50.0740   54.4680   20.6410 N   0  0  0  0  0  0  0  0  0  0  0  0
   49.9880   53.7840   21.3230 H   0  0  0  0  0  0  0  0  0  0  0  0
   51.5250   56.2720   22.2930 C   0  0  0  0  0  0  0  0  0  0  0  0
   50.2130   56.6530   21.6550 C   0  0  0  0  0  0  0  0  0  0  0  0
   49.6790   57.9090   21.8700 C   0  0  0  0  0  0  0  0  0  0  0  0
   48.4790   58.2600   21.2820 C   0  0  0  0  0  0  0  0  0  0  0  0
   47.8040   57.3530   20.4850 C   0  0  0  0  0  0  0  0  0  0  0  0
   48.3300   56.0950   20.2700 C   0  0  0  0  0  0  0  0  0  0  0  0
   49.5380   55.7400   20.8550 C   0  0  0  0  0  0  0  0  0  0  0  0
   47.1250   54.9830   15.7910 N   0  0  0  0  0  0  0  0  0  0  0  0
   46.1720   54.8360   15.6840 H   0  0  0  0  0  0  0  0  0  0  0  0
   47.7490   56.1810   15.2240 C   0  0  0  0  0  0  0  0  0  0  0  0
   47.0630   57.4100   15.7640 C   0  0  0  0  0  0  0  0  0  0  0  0
   47.5200   58.0020   16.9260 C   0  0  0  0  0  0  0  0  0  0  0  0
   46.8940   59.1320   17.4180 C   0  0  0  0  0  0  0  0  0  0  0  0
   45.8040   59.6630   16.7530 C   0  0  0  0  0  0  0  0  0  0  0  0
   45.3440   59.0680   15.5940 C   0  0  0  0  0  0  0  0  0  0  0  0
   45.9730   57.9410   15.0990 C   0  0  0  0  0  0  0  0  0  0  0  0
  1 18  1  0  0  0  0
  2  1  1  0  0  0  0
  3  2  2  0  0  0  0
  4  5  2  0  0  0  0
  4  3  1  0  0  0  0
  5  6  1  0  0  0  0
  6  1  2  0  0  0  0
  7  3  1  0  0  0  0
  7 10  2  0  0  0  0
  8  7  1  0  0  0  0
  9  8  1  0  0  0  0
 11 12  1  0  0  0  0
 11  8  1  0  0  0  0
 12 13  1  0  0  0  0
 13 14  1  0  0  0  0
 13 15  1  0  0  0  0
 15 16  1  0  0  0  0
 17 15  2  0  0  0  0
 18 19  2  0  0  0  0
 18 21  1  0  0  0  0
 20 18  2  0  0  0  0
 21 29  1  0  0  0  0
 21 22  1  0  0  0  0
 24 25  1  0  0  0  0
 24 23  1  0  0  0  0
 26 25  2  0  0  0  0
 27 26  1  0  0  0  0
 28 27  2  0  0  0  0
 28 29  1  0  0  0  0
 29 24  2  0  0  0  0
 30  5  1  0  0  0  0
 31 30  1  0  0  0  0
 32 33  1  0  0  0  0
 32 30  1  0  0  0  0
 33 34  2  0  0  0  0
 34 35  1  0  0  0  0
 36 35  2  0  0  0  0
 37 36  1  0  0  0  0
 38 37  2  0  0  0  0
 38 33  1  0  0  0  0
M  END
>  <MODEL>
2

>  <REMARK>
  Name = ZINC14537006
                            x       y       z     vdW  Elec       q    Type
                         _______ _______ _______ _____ _____    ______ ____

>  <TORSDO>
F 10

>  <minimizedAffinity>
-8.9908645205781035

$$$$
ZINC14537006
 OpenBabel10211214093D

 38 40  0  0  0  0  0  0  0  0999 V2000
   49.9080   53.6200   18.2780 C   0  0  0  0  0  0  0  0  0  0  0  0
   49.2050   54.5610   17.5510 C   0  0  0  0  0  0  0  0  0  0  0  0
   48.2670   54.1490   16.6030 C   0  0  0  0  0  0  0  0  0  0  0  0
   48.0320   52.7880   16.4040 C   0  0  0  0  0  0  0  0  0  0  0  0
   48.7390   51.8530   17.1440 C   0  0  0  0  0  0  0  0  0  0  0  0
   49.6760   52.2720   18.0820 C   0  0  0  0  0  0  0  0  0  0  0  0
   47.5170   55.1540   15.8170 C   0  0  0  0  0  0  0  0  0  0  0  0
   47.8470   56.4580   15.9020 N   0  0  0  0  0  0  0  0  0  0  0  0
   48.5750   56.7390   16.4780 H   0  0  0  0  0  0  0  0  0  0  0  0
   46.6060   54.8030   15.0950 O   0  0  0  0  0  0  0  0  0  0  0  0
   47.1050   57.4530   15.1240 C   0  0  0  0  0  0  0  0  0  0  0  0
   46.1240   58.1890   16.0390 C   0  0  0  0  0  0  0  0  0  0  0  0
   46.8640   58.8560   17.1130 N   0  0  0  0  0  0  0  0  0  0  0  0
   47.6580   58.4400   17.4850 H   0  0  0  0  0  0  0  0  0  0  0  0
   46.4410   60.0450   17.5850 C   0  0  0  0  0  0  0  0  0  0  0  0
   47.2020   60.7310   18.6890 C   0  0  0  0  0  0  0  0  0  0  0  0
   45.4490   60.5640   17.1190 O   0  0  0  0  0  0  0  0  0  0  0  0
   51.0970   54.1420   19.4690 S   0  0  0  0  0  0  0  0  0  0  0  0
   51.8840   53.0030   19.7840 O   0  0  0  0  0  0  0  0  0  0  0  0
   51.6650   55.3480   18.9730 O   0  0  0  0  0  0  0  0  0  0  0  0
   50.2690   54.5410   20.8460 N   0  0  0  0  0  0  0  0  0  0  0  0
   50.2120   53.9080   21.5780 H   0  0  0  0  0  0  0  0  0  0  0  0
   51.5870   56.5640   22.3500 C   0  0  0  0  0  0  0  0  0  0  0  0
   50.2600   56.8070   21.6770 C   0  0  0  0  0  0  0  0  0  0  0  0
   49.6450   58.0390   21.7850 C   0  0  0  0  0  0  0  0  0  0  0  0
   48.4320   58.2640   21.1640 C   0  0  0  0  0  0  0  0  0  0  0  0
   47.8230   57.2540   20.4410 C   0  0  0  0  0  0  0  0  0  0  0  0
   48.4300   56.0180   20.3330 C   0  0  0  0  0  0  0  0  0  0  0  0
   49.6520   55.7900   20.9520 C   0  0  0  0  0  0  0  0  0  0  0  0
   48.5080   50.4890   16.9490 N   0  0  0  0  0  0  0  0  0  0  0  0
   48.4370   50.1330   16.0490 H   0  0  0  0  0  0  0  0  0  0  0  0
   48.3710   49.5970   18.1030 C   0  0  0  0  0  0  0  0  0  0  0  0
   46.9990   48.9730   18.0950 C   0  0  0  0  0  0  0  0  0  0  0  0
   46.0710   49.3550   17.1450 C   0  0  0  0  0  0  0  0  0  0  0  0
   44.8140   48.7790   17.1340 C   0  0  0  0  0  0  0  0  0  0  0  0
   44.4830   47.8270   18.0820 C   0  0  0  0  0  0  0  0  0  0  0  0
   45.4080   47.4490   19.0350 C   0  0  0  0  0  0  0  0  0  0  0  0
   46.6660   48.0210   19.0420 C   0  0  0  0  0  0  0  0  0  0  0  0
  1 18  1  0  0  0  0
  2  1  2  0  0  0  0
  3  2  1  0  0  0  0
  4  3  2  0  0  0  0
  4  5  1  0  0  0  0
  5  6  2  0  0  0  0
  6  1  1  0  0  0  0
  7  8  1  0  0  0  0
  7  3  1  0  0  0  0
  8  9  1  0  0  0  0
 10  7  2  0  0  0  0
 11  8  1  0  0  0  0
 11 12  1  0  0  0  0
 12 13  1  0  0  0  0
 13 14  1  0  0  0  0
 13 15  1  0  0  0  0
 15 16  1  0  0  0  0
 17 15  2  0  0  0  0
 18 19  2  0  0  0  0
 18 21  1  0  0  0  0
 20 18  2  0  0  0  0
 21 29  1  0  0  0  0
 21 22  1  0  0  0  0
 24 25  1  0  0  0  0
 24 23  1  0  0  0  0
 26 25  2  0  0  0  0
 27 26  1  0  0  0  0
 28 27  2  0  0  0  0
 28 29  1  0  0  0  0
 29 24  2  0  0  0  0
 30  5  1  0  0  0  0
 30 32  1  0  0  0  0
 31 30  1  0  0  0  0
 33 32  1  0  0  0  0
 33 38  2  0  0  0  0
 34 33  1  0  0  0  0
 35 34  2  0  0  0  0
 35 36  1  0  0  0  0
 36 37  2  0  0  0  0
 37 38  1  0  0  0  0
M  END
>  <MODEL>
3

>  <REMARK>
  Name = ZINC14537006
                            x       y       z     vdW  Elec       q    Type
                         _______ _______ _______ _____ _____    ______ ____

>  <TORSDO>
F 10

>  <minimizedAffinity>
-8.9506737597601145

$$$$
ZINC14537006
 OpenBabel10211214093D

 38 40  0  0  0  0  0  0  0  0999 V2000
   49.1660   51.2530   17.0400 C   0  0  0  0  0  0  0  0  0  0  0  0
   48.5910   52.3750   16.4770 C   0  0  0  0  0  0  0  0  0  0  0  0
   48.6360   53.5950   17.1540 C   0  0  0  0  0  0  0  0  0  0  0  0
   49.2740   53.6780   18.3930 C   0  0  0  0  0  0  0  0  0  0  0  0
   49.8520   52.5450   18.9450 C   0  0  0  0  0  0  0  0  0  0  0  0
   49.7980   51.3340   18.2660 C   0  0  0  0  0  0  0  0  0  0  0  0
   48.0160   54.7980   16.5580 C   0  0  0  0  0  0  0  0  0  0  0  0
   48.4050   56.0250   16.9580 N   0  0  0  0  0  0  0  0  0  0  0  0
   49.0910   56.1200   17.6360 H   0  0  0  0  0  0  0  0  0  0  0  0
   47.1560   54.6790   15.7070 O   0  0  0  0  0  0  0  0  0  0  0  0
   47.7900   57.2160   16.3670 C   0  0  0  0  0  0  0  0  0  0  0  0
   47.4170   58.2020   17.4770 C   0  0  0  0  0  0  0  0  0  0  0  0
   47.9430   57.7190   18.7560 N   0  0  0  0  0  0  0  0  0  0  0  0
   48.3630   56.8450   18.8090 H   0  0  0  0  0  0  0  0  0  0  0  0
   47.8410   58.4860   19.8590 C   0  0  0  0  0  0  0  0  0  0  0  0
   48.3810   57.9890   21.1750 C   0  0  0  0  0  0  0  0  0  0  0  0
   47.3160   59.5770   19.7930 O   0  0  0  0  0  0  0  0  0  0  0  0
   49.1010   49.7130   16.1850 S   0  0  0  0  0  0  0  0  0  0  0  0
   50.0950   49.7690   15.1720 O   0  0  0  0  0  0  0  0  0  0  0  0
   49.0820   48.6980   17.1790 O   0  0  0  0  0  0  0  0  0  0  0  0
   47.6390   49.6440   15.4110 N   0  0  0  0  0  0  0  0  0  0  0  0
   47.5390   50.0310   14.5270 H   0  0  0  0  0  0  0  0  0  0  0  0
   46.0590   47.8470   13.8730 C   0  0  0  0  0  0  0  0  0  0  0  0
   45.7510   48.1440   15.3180 C   0  0  0  0  0  0  0  0  0  0  0  0
   44.6710   47.5410   15.9330 C   0  0  0  0  0  0  0  0  0  0  0  0
   44.3910   47.8090   17.2600 C   0  0  0  0  0  0  0  0  0  0  0  0
   45.1840   48.6890   17.9730 C   0  0  0  0  0  0  0  0  0  0  0  0
   46.2620   49.2990   17.3630 C   0  0  0  0  0  0  0  0  0  0  0  0
   46.5500   49.0290   16.0320 C   0  0  0  0  0  0  0  0  0  0  0  0
   50.4920   52.6220   20.1850 N   0  0  0  0  0  0  0  0  0  0  0  0
   50.0180   52.3680   20.9930 H   0  0  0  0  0  0  0  0  0  0  0  0
   51.8790   53.0890   20.2660 C   0  0  0  0  0  0  0  0  0  0  0  0
   51.9080   54.4780   20.8510 C   0  0  0  0  0  0  0  0  0  0  0  0
   52.2560   55.5550   20.0570 C   0  0  0  0  0  0  0  0  0  0  0  0
   52.2780   56.8300   20.5910 C   0  0  0  0  0  0  0  0  0  0  0  0
   51.9620   57.0260   21.9230 C   0  0  0  0  0  0  0  0  0  0  0  0
   51.6200   55.9490   22.7180 C   0  0  0  0  0  0  0  0  0  0  0  0
   51.5920   54.6750   22.1830 C   0  0  0  0  0  0  0  0  0  0  0  0
  1  6  1  0  0  0  0
  2  1  2  0  0  0  0
  2  3  1  0  0  0  0
  3  4  2  0  0  0  0
  4  5  1  0  0  0  0
  5 30  1  0  0  0  0
  6  5  2  0  0  0  0
  7  8  1  0  0  0  0
  7  3  1  0  0  0  0
  8  9  1  0  0  0  0
 10  7  2  0  0  0  0
 11  8  1  0  0  0  0
 11 12  1  0  0  0  0
 12 13  1  0  0  0  0
 13 14  1  0  0  0  0
 13 15  1  0  0  0  0
 15 16  1  0  0  0  0
 17 15  2  0  0  0  0
 18  1  1  0  0  0  0
 18 20  2  0  0  0  0
 19 18  2  0  0  0  0
 21 29  1  0  0  0  0
 21 18  1  0  0  0  0
 22 21  1  0  0  0  0
 23 24  1  0  0  0  0
 24 25  2  0  0  0  0
 24 29  1  0  0  0  0
 25 26  1  0  0  0  0
 26 27  2  0  0  0  0
 28 27  1  0  0  0  0
 29 28  2  0  0  0  0
 30 32  1  0  0  0  0
 30 31  1  0  0  0  0
 32 33  1  0  0  0  0
 33 38  2  0  0  0  0
 34 35  2  0  0  0  0
 34 33  1  0  0  0  0
 35 36  1  0  0  0  0
 36 37  2  0  0  0  0
 38 37  1  0  0  0  0
M  END
>  <MODEL>
4

>  <REMARK>
  Name = ZINC14537006
                            x       y       z     vdW  Elec       q    Type
                         _______ _______ _______ _____ _____    ______ ____

>  <TORSDO>
F 10

>  <minimizedAffinity>
-8.9339606131431335

$$$$
ZINC14537006
 OpenBabel10211214093D

 38 40  0  0  0  0  0  0  0  0999 V2000
   50.2340   52.1500   19.1690 C   0  0  0  0  0  0  0  0  0  0  0  0
   49.5740   53.1850   18.5360 C   0  0  0  0  0  0  0  0  0  0  0  0
   48.8570   52.9410   17.3640 C   0  0  0  0  0  0  0  0  0  0  0  0
   48.7980   51.6480   16.8430 C   0  0  0  0  0  0  0  0  0  0  0  0
   49.4600   50.6160   17.4900 C   0  0  0  0  0  0  0  0  0  0  0  0
   50.1770   50.8690   18.6530 C   0  0  0  0  0  0  0  0  0  0  0  0
   48.1540   54.0490   16.6800 C   0  0  0  0  0  0  0  0  0  0  0  0
   48.5090   55.3250   16.9270 N   0  0  0  0  0  0  0  0  0  0  0  0
   49.2240   55.5190   17.5530 H   0  0  0  0  0  0  0  0  0  0  0  0
   47.2580   53.8070   15.8950 O   0  0  0  0  0  0  0  0  0  0  0  0
   47.8130   56.4220   16.2490 C   0  0  0  0  0  0  0  0  0  0  0  0
   47.6900   57.6140   17.2020 C   0  0  0  0  0  0  0  0  0  0  0  0
   48.1190   57.2140   18.5430 N   0  0  0  0  0  0  0  0  0  0  0  0
   48.5280   56.3440   18.6830 H   0  0  0  0  0  0  0  0  0  0  0  0
   47.9460   58.0520   19.5840 C   0  0  0  0  0  0  0  0  0  0  0  0
   48.3880   57.6400   20.9650 C   0  0  0  0  0  0  0  0  0  0  0  0
   47.4350   59.1370   19.4100 O   0  0  0  0  0  0  0  0  0  0  0  0
   51.1440   52.4630   20.6440 S   0  0  0  0  0  0  0  0  0  0  0  0
   50.8390   51.4060   21.5430 O   0  0  0  0  0  0  0  0  0  0  0  0
   52.4750   52.7630   20.2440 O   0  0  0  0  0  0  0  0  0  0  0  0
   50.5300   53.8470   21.3150 N   0  0  0  0  0  0  0  0  0  0  0  0
   49.7150   53.8120   21.8390 H   0  0  0  0  0  0  0  0  0  0  0  0
   51.6570   55.1330   23.5870 C   0  0  0  0  0  0  0  0  0  0  0  0
   51.7510   55.7280   22.2060 C   0  0  0  0  0  0  0  0  0  0  0  0
   52.3940   56.9360   22.0150 C   0  0  0  0  0  0  0  0  0  0  0  0
   52.4840   57.4790   20.7480 C   0  0  0  0  0  0  0  0  0  0  0  0
   51.9220   56.8220   19.6680 C   0  0  0  0  0  0  0  0  0  0  0  0
   51.2740   55.6170   19.8520 C   0  0  0  0  0  0  0  0  0  0  0  0
   51.1850   55.0650   21.1240 C   0  0  0  0  0  0  0  0  0  0  0  0
   49.4050   49.3190   16.9720 N   0  0  0  0  0  0  0  0  0  0  0  0
   49.7480   49.1360   16.0830 H   0  0  0  0  0  0  0  0  0  0  0  0
   48.8270   48.2350   17.7710 C   0  0  0  0  0  0  0  0  0  0  0  0
   47.3350   48.1930   17.5570 C   0  0  0  0  0  0  0  0  0  0  0  0
   46.8170   48.3050   16.2810 C   0  0  0  0  0  0  0  0  0  0  0  0
   45.4490   48.2610   16.0840 C   0  0  0  0  0  0  0  0  0  0  0  0
   44.6000   48.1150   17.1650 C   0  0  0  0  0  0  0  0  0  0  0  0
   45.1180   48.0090   18.4420 C   0  0  0  0  0  0  0  0  0  0  0  0
   46.4850   48.0470   18.6380 C   0  0  0  0  0  0  0  0  0  0  0  0
  1 18  1  0  0  0  0
  2  1  2  0  0  0  0
  3  2  1  0  0  0  0
  4  3  2  0  0  0  0
  4  5  1  0  0  0  0
  5  6  2  0  0  0  0
  6  1  1  0  0  0  0
  7  8  1  0  0  0  0
  7  3  1  0  0  0  0
  8  9  1  0  0  0  0
 10  7  2  0  0  0  0
 11  8  1  0  0  0  0
 11 12  1  0  0  0  0
 12 13  1  0  0  0  0
 13 14  1  0  0  0  0
 13 15  1  0  0  0  0
 15 16  1  0  0  0  0
 17 15  2  0  0  0  0
 18 21  1  0  0  0  0
 18 19  2  0  0  0  0
 20 18  2  0  0  0  0
 21 22  1  0  0  0  0
 24 23  1  0  0  0  0
 25 24  1  0  0  0  0
 26 25  2  0  0  0  0
 27 28  2  0  0  0  0
 27 26  1  0  0  0  0
 28 29  1  0  0  0  0
 29 21  1  0  0  0  0
 29 24  2  0  0  0  0
 30  5  1  0  0  0  0
 30 32  1  0  0  0  0
 31 30  1  0  0  0  0
 33 32  1  0  0  0  0
 33 38  2  0  0  0  0
 34 33  1  0  0  0  0
 35 34  2  0  0  0  0
 35 36  1  0  0  0  0
 36 37  2  0  0  0  0
 37 38  1  0  0  0  0
M  END
>  <MODEL>
5

>  <REMARK>
  Name = ZINC14537006
                            x       y       z     vdW  Elec       q    Type
                         _______ _______ _______ _____ _____    ______ ____

>  <TORSDO>
F 10

>  <minimizedAffinity>
-8.8725033017062511

$$$$
ZINC14537006
 OpenBabel10211214093D

 38 40  0  0  0  0  0  0  0  0999 V2000
   48.1260   50.7230   17.8170 C   0  0  0  0  0  0  0  0  0  0  0  0
   47.6650   51.8730   17.2080 C   0  0  0  0  0  0  0  0  0  0  0  0
   48.4570   53.0220   17.2000 C   0  0  0  0  0  0  0  0  0  0  0  0
   49.7180   53.0000   17.7970 C   0  0  0  0  0  0  0  0  0  0  0  0
   50.1730   51.8380   18.4000 C   0  0  0  0  0  0  0  0  0  0  0  0
   49.3750   50.7000   18.4080 C   0  0  0  0  0  0  0  0  0  0  0  0
   47.9640   54.2590   16.5540 C   0  0  0  0  0  0  0  0  0  0  0  0
   48.3960   55.4610   16.9830 N   0  0  0  0  0  0  0  0  0  0  0  0
   49.0300   55.5160   17.7150 H   0  0  0  0  0  0  0  0  0  0  0  0
   47.1700   54.1890   15.6370 O   0  0  0  0  0  0  0  0  0  0  0  0
   47.9070   56.6850   16.3440 C   0  0  0  0  0  0  0  0  0  0  0  0
   47.7010   57.7680   17.4050 C   0  0  0  0  0  0  0  0  0  0  0  0
   48.2190   57.2960   18.6920 N   0  0  0  0  0  0  0  0  0  0  0  0
   48.7000   56.4550   18.7410 H   0  0  0  0  0  0  0  0  0  0  0  0
   48.0250   58.0290   19.8060 C   0  0  0  0  0  0  0  0  0  0  0  0
   48.5570   57.5430   21.1290 C   0  0  0  0  0  0  0  0  0  0  0  0
   47.4240   59.0800   19.7430 O   0  0  0  0  0  0  0  0  0  0  0  0
   47.1210   49.2760   17.8310 S   0  0  0  0  0  0  0  0  0  0  0  0
   47.3750   48.6170   19.0640 O   0  0  0  0  0  0  0  0  0  0  0  0
   45.8170   49.6830   17.4390 O   0  0  0  0  0  0  0  0  0  0  0  0
   47.6840   48.2770   16.6360 N   0  0  0  0  0  0  0  0  0  0  0  0
   48.5770   47.9040   16.6960 H   0  0  0  0  0  0  0  0  0  0  0  0
   48.0680   49.7470   14.2310 C   0  0  0  0  0  0  0  0  0  0  0  0
   47.0240   48.6650   14.3480 C   0  0  0  0  0  0  0  0  0  0  0  0
   46.2160   48.3660   13.2680 C   0  0  0  0  0  0  0  0  0  0  0  0
   45.2620   47.3710   13.3730 C   0  0  0  0  0  0  0  0  0  0  0  0
   45.1070   46.6790   14.5600 C   0  0  0  0  0  0  0  0  0  0  0  0
   45.9090   46.9770   15.6440 C   0  0  0  0  0  0  0  0  0  0  0  0
   46.8710   47.9730   15.5420 C   0  0  0  0  0  0  0  0  0  0  0  0
   51.4350   51.8100   18.9990 N   0  0  0  0  0  0  0  0  0  0  0  0
   52.2310   51.7340   18.4510 H   0  0  0  0  0  0  0  0  0  0  0  0
   51.5560   51.8940   20.4570 C   0  0  0  0  0  0  0  0  0  0  0  0
   51.7230   53.3350   20.8660 C   0  0  0  0  0  0  0  0  0  0  0  0
   52.1650   54.2670   19.9460 C   0  0  0  0  0  0  0  0  0  0  0  0
   52.3140   55.5900   20.3190 C   0  0  0  0  0  0  0  0  0  0  0  0
   52.0310   55.9780   21.6160 C   0  0  0  0  0  0  0  0  0  0  0  0
   51.5940   55.0450   22.5360 C   0  0  0  0  0  0  0  0  0  0  0  0
   51.4400   53.7240   22.1620 C   0  0  0  0  0  0  0  0  0  0  0  0
  1 18  1  0  0  0  0
  1  6  2  0  0  0  0
  2  1  1  0  0  0  0
  3  2  2  0  0  0  0
  3  4  1  0  0  0  0
  4  5  2  0  0  0  0
  5  6  1  0  0  0  0
  5 30  1  0  0  0  0
  7  8  1  0  0  0  0
  7  3  1  0  0  0  0
  8  9  1  0  0  0  0
 10  7  2  0  0  0  0
 11  8  1  0  0  0  0
 11 12  1  0  0  0  0
 12 13  1  0  0  0  0
 13 14  1  0  0  0  0
 13 15  1  0  0  0  0
 15 16  1  0  0  0  0
 17 15  2  0  0  0  0
 18 19  2  0  0  0  0
 20 18  2  0  0  0  0
 21 22  1  0  0  0  0
 21 18  1  0  0  0  0
 23 24  1  0  0  0  0
 24 29  2  0  0  0  0
 25 26  2  0  0  0  0
 25 24  1  0  0  0  0
 26 27  1  0  0  0  0
 27 28  2  0  0  0  0
 29 28  1  0  0  0  0
 29 21  1  0  0  0  0
 30 32  1  0  0  0  0
 31 30  1  0  0  0  0
 32 33  1  0  0  0  0
 33 38  2  0  0  0  0
 34 35  2  0  0  0  0
 34 33  1  0  0  0  0
 35 36  1  0  0  0  0
 36 37  2  0  0  0  0
 38 37  1  0  0  0  0
M  END
>  <MODEL>
6

>  <REMARK>
  Name = ZINC14537006
                            x       y       z     vdW  Elec       q    Type
                         _______ _______ _______ _____ _____    ______ ____

>  <TORSDO>
F 10

>  <minimizedAffinity>
-8.6585878398562492

$$$$
ZINC14537006
 OpenBabel10211214093D

 38 40  0  0  0  0  0  0  0  0999 V2000
   49.5230   53.8790   18.0550 C   0  0  0  0  0  0  0  0  0  0  0  0
   48.9690   54.9710   17.4150 C   0  0  0  0  0  0  0  0  0  0  0  0
   47.9630   54.7860   16.4660 C   0  0  0  0  0  0  0  0  0  0  0  0
   47.5110   53.4980   16.1760 C   0  0  0  0  0  0  0  0  0  0  0  0
   48.0700   52.4100   16.8290 C   0  0  0  0  0  0  0  0  0  0  0  0
   49.0750   52.6030   17.7690 C   0  0  0  0  0  0  0  0  0  0  0  0
   47.3730   55.9520   15.7740 C   0  0  0  0  0  0  0  0  0  0  0  0
   46.6250   55.7710   14.6670 N   0  0  0  0  0  0  0  0  0  0  0  0
   46.4740   54.8760   14.3240 H   0  0  0  0  0  0  0  0  0  0  0  0
   47.5620   57.0730   16.2040 O   0  0  0  0  0  0  0  0  0  0  0  0
   46.0410   56.9260   13.9820 C   0  0  0  0  0  0  0  0  0  0  0  0
   44.9400   56.4520   13.0300 C   0  0  0  0  0  0  0  0  0  0  0  0
   45.4700   56.3810   11.6660 N   0  0  0  0  0  0  0  0  0  0  0  0
   46.1970   55.7720   11.4600 H   0  0  0  0  0  0  0  0  0  0  0  0
   44.9500   57.1620   10.7000 C   0  0  0  0  0  0  0  0  0  0  0  0
   45.4950   57.0890    9.2970 C   0  0  0  0  0  0  0  0  0  0  0  0
   44.0410   57.9230   10.9580 O   0  0  0  0  0  0  0  0  0  0  0  0
   50.7970   54.1160   19.2480 S   0  0  0  0  0  0  0  0  0  0  0  0
   51.4140   52.8510   19.4410 O   0  0  0  0  0  0  0  0  0  0  0  0
   51.5270   55.2660   18.8400 O   0  0  0  0  0  0  0  0  0  0  0  0
   50.0620   54.5070   20.6800 N   0  0  0  0  0  0  0  0  0  0  0  0
   50.0070   53.8510   21.3920 H   0  0  0  0  0  0  0  0  0  0  0  0
   51.4790   56.3420   22.3270 C   0  0  0  0  0  0  0  0  0  0  0  0
   50.1800   56.7100   21.6570 C   0  0  0  0  0  0  0  0  0  0  0  0
   49.6410   57.9690   21.8390 C   0  0  0  0  0  0  0  0  0  0  0  0
   48.4520   58.3080   21.2210 C   0  0  0  0  0  0  0  0  0  0  0  0
   47.7940   57.3870   20.4260 C   0  0  0  0  0  0  0  0  0  0  0  0
   48.3250   56.1250   20.2450 C   0  0  0  0  0  0  0  0  0  0  0  0
   49.5220   55.7820   20.8610 C   0  0  0  0  0  0  0  0  0  0  0  0
   47.6210   51.1180   16.5430 N   0  0  0  0  0  0  0  0  0  0  0  0
   47.0250   50.9660   15.7930 H   0  0  0  0  0  0  0  0  0  0  0  0
   48.0480   49.9920   17.3780 C   0  0  0  0  0  0  0  0  0  0  0  0
   46.8550   49.1330   17.7120 C   0  0  0  0  0  0  0  0  0  0  0  0
   46.8630   48.3520   18.8520 C   0  0  0  0  0  0  0  0  0  0  0  0
   45.7680   47.5680   19.1610 C   0  0  0  0  0  0  0  0  0  0  0  0
   44.6680   47.5570   18.3230 C   0  0  0  0  0  0  0  0  0  0  0  0
   44.6620   48.3330   17.1800 C   0  0  0  0  0  0  0  0  0  0  0  0
   45.7550   49.1210   16.8740 C   0  0  0  0  0  0  0  0  0  0  0  0
  1 18  1  0  0  0  0
  2  1  2  0  0  0  0
  3  2  1  0  0  0  0
  4  3  2  0  0  0  0
  4  5  1  0  0  0  0
  5  6  2  0  0  0  0
  6  1  1  0  0  0  0
  7 10  2  0  0  0  0
  7  3  1  0  0  0  0
  8  7  1  0  0  0  0
  9  8  1  0  0  0  0
 11  8  1  0  0  0  0
 12 11  1  0  0  0  0
 13 12  1  0  0  0  0
 14 13  1  0  0  0  0
 15 17  2  0  0  0  0
 15 13  1  0  0  0  0
 16 15  1  0  0  0  0
 18 19  2  0  0  0  0
 18 21  1  0  0  0  0
 20 18  2  0  0  0  0
 21 29  1  0  0  0  0
 21 22  1  0  0  0  0
 24 25  1  0  0  0  0
 24 23  1  0  0  0  0
 26 25  2  0  0  0  0
 27 26  1  0  0  0  0
 28 27  2  0  0  0  0
 28 29  1  0  0  0  0
 29 24  2  0  0  0  0
 30  5  1  0  0  0  0
 30 32  1  0  0  0  0
 31 30  1  0  0  0  0
 32 33  1  0  0  0  0
 33 34  2  0  0  0  0
 34 35  1  0  0  0  0
 36 35  2  0  0  0  0
 37 36  1  0  0  0  0
 38 37  2  0  0  0  0
 38 33  1  0  0  0  0
M  END
>  <MODEL>
7

>  <REMARK>
  Name = ZINC14537006
                            x       y       z     vdW  Elec       q    Type
                         _______ _______ _______ _____ _____    ______ ____

>  <TORSDO>
F 10

>  <minimizedAffinity>
-8.5913019297554953

$$$$
ZINC14537006
 OpenBabel10211214093D

 38 40  0  0  0  0  0  0  0  0999 V2000
   49.0530   55.4080   17.9860 C   0  0  0  0  0  0  0  0  0  0  0  0
   48.4850   56.4670   17.3050 C   0  0  0  0  0  0  0  0  0  0  0  0
   47.6540   56.2260   16.2110 C   0  0  0  0  0  0  0  0  0  0  0  0
   47.3890   54.9150   15.8150 C   0  0  0  0  0  0  0  0  0  0  0  0
   47.9600   53.8590   16.5090 C   0  0  0  0  0  0  0  0  0  0  0  0
   48.7920   54.1090   17.5950 C   0  0  0  0  0  0  0  0  0  0  0  0
   47.0490   57.3590   15.4750 C   0  0  0  0  0  0  0  0  0  0  0  0
   46.1300   58.1390   16.0780 N   0  0  0  0  0  0  0  0  0  0  0  0
   45.8650   57.9590   16.9930 H   0  0  0  0  0  0  0  0  0  0  0  0
   47.3810   57.5850   14.3290 O   0  0  0  0  0  0  0  0  0  0  0  0
   45.5310   59.2600   15.3490 C   0  0  0  0  0  0  0  0  0  0  0  0
   44.9640   60.2730   16.3470 C   0  0  0  0  0  0  0  0  0  0  0  0
   46.0240   60.7080   17.2590 N   0  0  0  0  0  0  0  0  0  0  0  0
   46.9540   60.6350   16.9910 H   0  0  0  0  0  0  0  0  0  0  0  0
   45.7090   61.2080   18.4700 C   0  0  0  0  0  0  0  0  0  0  0  0
   46.8000   61.6550   19.4080 C   0  0  0  0  0  0  0  0  0  0  0  0
   44.5470   61.2990   18.8040 O   0  0  0  0  0  0  0  0  0  0  0  0
   50.1080   55.7160   19.3630 S   0  0  0  0  0  0  0  0  0  0  0  0
   51.4230   55.3660   18.9540 O   0  0  0  0  0  0  0  0  0  0  0  0
   49.7800   57.0130   19.8440 O   0  0  0  0  0  0  0  0  0  0  0  0
   49.6820   54.6480   20.5540 N   0  0  0  0  0  0  0  0  0  0  0  0
   48.9190   54.8350   21.1230 H   0  0  0  0  0  0  0  0  0  0  0  0
   51.5410   54.5650   22.7050 C   0  0  0  0  0  0  0  0  0  0  0  0
   51.3410   53.3940   21.7780 C   0  0  0  0  0  0  0  0  0  0  0  0
   52.0750   52.2370   21.9560 C   0  0  0  0  0  0  0  0  0  0  0  0
   51.8880   51.1610   21.1090 C   0  0  0  0  0  0  0  0  0  0  0  0
   50.9740   51.2420   20.0750 C   0  0  0  0  0  0  0  0  0  0  0  0
   50.2400   52.3970   19.8880 C   0  0  0  0  0  0  0  0  0  0  0  0
   50.4220   53.4780   20.7400 C   0  0  0  0  0  0  0  0  0  0  0  0
   47.6980   52.5440   16.1180 N   0  0  0  0  0  0  0  0  0  0  0  0
   46.9140   52.3430   15.5840 H   0  0  0  0  0  0  0  0  0  0  0  0
   48.6080   51.4660   16.5160 C   0  0  0  0  0  0  0  0  0  0  0  0
   47.8330   50.3940   17.2370 C   0  0  0  0  0  0  0  0  0  0  0  0
   46.4920   50.2050   16.9590 C   0  0  0  0  0  0  0  0  0  0  0  0
   45.7820   49.2180   17.6160 C   0  0  0  0  0  0  0  0  0  0  0  0
   46.4110   48.4260   18.5600 C   0  0  0  0  0  0  0  0  0  0  0  0
   47.7490   48.6190   18.8420 C   0  0  0  0  0  0  0  0  0  0  0  0
   48.4610   49.6020   18.1810 C   0  0  0  0  0  0  0  0  0  0  0  0
  1 18  1  0  0  0  0
  2  1  2  0  0  0  0
  3  2  1  0  0  0  0
  4  3  2  0  0  0  0
  4  5  1  0  0  0  0
  5  6  2  0  0  0  0
  6  1  1  0  0  0  0
  7  8  1  0  0  0  0
  7  3  1  0  0  0  0
  8  9  1  0  0  0  0
 10  7  2  0  0  0  0
 11  8  1  0  0  0  0
 11 12  1  0  0  0  0
 12 13  1  0  0  0  0
 13 15  1  0  0  0  0
 14 13  1  0  0  0  0
 15 17  2  0  0  0  0
 15 16  1  0  0  0  0
 18 20  2  0  0  0  0
 18 21  1  0  0  0  0
 19 18  2  0  0  0  0
 21 29  1  0  0  0  0
 21 22  1  0  0  0  0
 24 25  1  0  0  0  0
 24 23  1  0  0  0  0
 26 25  2  0  0  0  0
 27 26  1  0  0  0  0
 28 27  2  0  0  0  0
 28 29  1  0  0  0  0
 29 24  2  0  0  0  0
 30  5  1  0  0  0  0
 30 32  1  0  0  0  0
 31 30  1  0  0  0  0
 32 33  1  0  0  0  0
 33 38  1  0  0  0  0
 34 33  2  0  0  0  0
 34 35  1  0  0  0  0
 35 36  2  0  0  0  0
 36 37  1  0  0  0  0
 38 37  2  0  0  0  0
M  END
>  <MODEL>
8

>  <REMARK>
  Name = ZINC14537006
                            x       y       z     vdW  Elec       q    Type
                         _______ _______ _______ _____ _____    ______ ____

>  <TORSDO>
F 10

>  <minimizedAffinity>
-8.5583372095235202

$$$$
ZINC14537006
 OpenBabel10211214093D

 38 40  0  0  0  0  0  0  0  0999 V2000
   48.9310   53.8980   18.2360 C   0  0  0  0  0  0  0  0  0  0  0  0
   48.4060   55.0970   18.6770 C   0  0  0  0  0  0  0  0  0  0  0  0
   49.0440   55.8040   19.6970 C   0  0  0  0  0  0  0  0  0  0  0  0
   50.2180   55.3020   20.2590 C   0  0  0  0  0  0  0  0  0  0  0  0
   50.7400   54.1010   19.8040 C   0  0  0  0  0  0  0  0  0  0  0  0
   50.0950   53.4010   18.7920 C   0  0  0  0  0  0  0  0  0  0  0  0
   48.4800   57.0850   20.1770 C   0  0  0  0  0  0  0  0  0  0  0  0
   47.9030   57.9350   19.3050 N   0  0  0  0  0  0  0  0  0  0  0  0
   47.8570   57.7080   18.3630 H   0  0  0  0  0  0  0  0  0  0  0  0
   48.5370   57.3690   21.3570 O   0  0  0  0  0  0  0  0  0  0  0  0
   47.3450   59.2030   19.7800 C   0  0  0  0  0  0  0  0  0  0  0  0
   47.2600   60.1920   18.6150 C   0  0  0  0  0  0  0  0  0  0  0  0
   46.8820   61.5130   19.1220 N   0  0  0  0  0  0  0  0  0  0  0  0
   47.5700   62.1500   19.3740 H   0  0  0  0  0  0  0  0  0  0  0  0
   45.5810   61.8430   19.2400 C   0  0  0  0  0  0  0  0  0  0  0  0
   45.1930   63.2020   19.7620 C   0  0  0  0  0  0  0  0  0  0  0  0
   44.7230   61.0470   18.9250 O   0  0  0  0  0  0  0  0  0  0  0  0
   48.1200   53.0050   16.9520 S   0  0  0  0  0  0  0  0  0  0  0  0
   47.0040   52.3590   17.5490 O   0  0  0  0  0  0  0  0  0  0  0  0
   47.9860   53.9000   15.8570 O   0  0  0  0  0  0  0  0  0  0  0  0
   49.1530   51.8080   16.4610 N   0  0  0  0  0  0  0  0  0  0  0  0
   49.9670   52.0340   15.9850 H   0  0  0  0  0  0  0  0  0  0  0  0
   48.7020   50.0620   14.2600 C   0  0  0  0  0  0  0  0  0  0  0  0
   48.6240   49.5840   15.6870 C   0  0  0  0  0  0  0  0  0  0  0  0
   48.3200   48.2640   15.9590 C   0  0  0  0  0  0  0  0  0  0  0  0
   48.2530   47.8230   17.2670 C   0  0  0  0  0  0  0  0  0  0  0  0
   48.4790   48.7040   18.3090 C   0  0  0  0  0  0  0  0  0  0  0  0
   48.7780   50.0260   18.0450 C   0  0  0  0  0  0  0  0  0  0  0  0
   48.8510   50.4720   16.7310 C   0  0  0  0  0  0  0  0  0  0  0  0
   51.9160   53.5950   20.3640 N   0  0  0  0  0  0  0  0  0  0  0  0
   52.7750   53.8210   19.9750 H   0  0  0  0  0  0  0  0  0  0  0  0
   51.8510   52.7190   21.5360 C   0  0  0  0  0  0  0  0  0  0  0  0
   51.7250   51.2850   21.0870 C   0  0  0  0  0  0  0  0  0  0  0  0
   52.6320   50.7610   20.1850 C   0  0  0  0  0  0  0  0  0  0  0  0
   52.5200   49.4450   19.7770 C   0  0  0  0  0  0  0  0  0  0  0  0
   51.4940   48.6570   20.2640 C   0  0  0  0  0  0  0  0  0  0  0  0
   50.5840   49.1820   21.1610 C   0  0  0  0  0  0  0  0  0  0  0  0
   50.6990   50.4960   21.5730 C   0  0  0  0  0  0  0  0  0  0  0  0
  1  2  2  0  0  0  0
  1  6  1  0  0  0  0
  2  3  1  0  0  0  0
  3  7  1  0  0  0  0
  3  4  2  0  0  0  0
  5  4  1  0  0  0  0
  5 30  1  0  0  0  0
  6  5  2  0  0  0  0
  7 10  2  0  0  0  0
  8 11  1  0  0  0  0
  8  7  1  0  0  0  0
  9  8  1  0  0  0  0
 12 13  1  0  0  0  0
 12 11  1  0  0  0  0
 13 15  1  0  0  0  0
 13 14  1  0  0  0  0
 15 16  1  0  0  0  0
 17 15  2  0  0  0  0
 18 19  2  0  0  0  0
 18  1  1  0  0  0  0
 20 18  2  0  0  0  0
 21 29  1  0  0  0  0
 21 18  1  0  0  0  0
 22 21  1  0  0  0  0
 23 24  1  0  0  0  0
 24 25  2  0  0  0  0
 24 29  1  0  0  0  0
 25 26  1  0  0  0  0
 26 27  2  0  0  0  0
 28 27  1  0  0  0  0
 29 28  2  0  0  0  0
 30 32  1  0  0  0  0
 31 30  1  0  0  0  0
 33 32  1  0  0  0  0
 33 38  2  0  0  0  0
 34 33  1  0  0  0  0
 35 34  2  0  0  0  0
 35 36  1  0  0  0  0
 36 37  2  0  0  0  0
 37 38  1  0  0  0  0
M  END
>  <MODEL>
9

>  <REMARK>
  Name = ZINC14537006
                            x       y       z     vdW  Elec       q    Type
                         _______ _______ _______ _____ _____    ______ ____

>  <TORSDO>
F 10

>  <minimizedAffinity>
-8.3791953175853475

$$$$
ZINC00036440
 OpenBabel10211214113D

 26 27  0  0  1  0  0  0  0  0999 V2000
   48.8580   58.0650   21.3130 C   0  0  0  0  0  0  0  0  0  0  0  0
   50.2590   57.5660   21.0720 C   0  0  0  0  0  0  0  0  0  0  0  0
   50.4600   56.5310   20.2290 C   0  0  0  0  0  0  0  0  0  0  0  0
   51.8840   56.0610   20.0150 C   0  0  1  0  0  0  0  0  0  0  0  0
   52.9400   56.7770   20.7490 N   0  0  0  0  0  0  0  0  0  0  0  0
   53.8720   56.5240   20.6540 H   0  0  0  0  0  0  0  0  0  0  0  0
   52.5830   57.7950   21.5570 C   0  0  0  0  0  0  0  0  0  0  0  0
   53.4470   58.3940   22.1680 O   0  0  0  0  0  0  0  0  0  0  0  0
   51.3060   58.1690   21.7080 N   0  0  0  0  0  0  0  0  0  0  0  0
   51.1140   58.9100   22.3050 H   0  0  0  0  0  0  0  0  0  0  0  0
   51.9560   54.6050   20.4010 C   0  0  0  0  0  0  0  0  0  0  0  0
   52.3560   53.6640   19.4720 C   0  0  0  0  0  0  0  0  0  0  0  0
   52.4280   52.3310   19.8250 C   0  0  0  0  0  0  0  0  0  0  0  0
   52.0880   51.9350   21.1100 C   0  0  0  0  0  0  0  0  0  0  0  0
   51.6810   52.8800   22.0390 C   0  0  0  0  0  0  0  0  0  0  0  0
   51.6160   54.2150   21.6830 C   0  0  0  0  0  0  0  0  0  0  0  0
   52.1530   50.6230   21.4580 O   0  0  0  0  0  0  0  0  0  0  0  0
   52.1460   50.0150   20.7050 H   0  0  0  0  0  0  0  0  0  0  0  0
   49.3760   55.9070   19.5680 C   0  0  0  0  0  0  0  0  0  0  0  0
   48.5820   55.2360   20.2000 O   0  0  0  0  0  0  0  0  0  0  0  0
   49.2230   56.0560   18.2350 O   0  0  0  0  0  0  0  0  0  0  0  0
   48.2400   56.9950   17.7970 C   0  0  0  0  0  0  0  0  0  0  0  0
   47.9020   56.7310   16.3280 C   0  0  0  0  0  0  0  0  0  0  0  0
   47.9200   55.3540   16.0850 F   0  0  0  0  0  0  0  0  0  0  0  0
   48.8470   57.3610   15.5110 F   0  0  0  0  0  0  0  0  0  0  0  0
   46.6290   57.2380   16.0450 F   0  0  0  0  0  0  0  0  0  0  0  0
  2  1  1  0  0  0  0
  2  9  1  0  0  0  0
  3  2  2  0  0  0  0
  4  3  1  0  0  0  0
  4 11  1  1  0  0  0
  4  5  1  0  0  0  0
  5  7  1  0  0  0  0
  6  5  1  0  0  0  0
  7  9  1  0  0  0  0
  7  8  2  0  0  0  0
  9 10  1  0  0  0  0
 11 16  2  0  0  0  0
 12 13  2  0  0  0  0
 12 11  1  0  0  0  0
 13 14  1  0  0  0  0
 14 17  1  0  0  0  0
 14 15  2  0  0  0  0
 16 15  1  0  0  0  0
 18 17  1  0  0  0  0
 19 20  2  0  0  0  0
 19  3  1  0  0  0  0
 21 19  1  0  0  0  0
 22 21  1  0  0  0  0
 23 22  1  0  0  0  0
 24 23  1  0  0  0  0
 25 23  1  0  0  0  0
 26 23  1  0  0  0  0
M  END
>  <MODEL>
1

>  <REMARK>
  Name = ZINC00036440
                            x       y       z     vdW  Elec       q    Type
                         _______ _______ _______ _____ _____    ______ ____

>  <TORSDO>
F 6

>  <minimizedAffinity>
-8.0813927863111452

$$$$
ZINC00036440
 OpenBabel10211214113D

 26 27  0  0  1  0  0  0  0  0999 V2000
   48.9540   58.1060   21.4290 C   0  0  0  0  0  0  0  0  0  0  0  0
   50.3440   57.5890   21.1630 C   0  0  0  0  0  0  0  0  0  0  0  0
   50.5170   56.5550   20.3120 C   0  0  0  0  0  0  0  0  0  0  0  0
   51.9310   56.0660   20.0740 C   0  0  1  0  0  0  0  0  0  0  0  0
   53.0080   56.7650   20.7940 N   0  0  0  0  0  0  0  0  0  0  0  0
   53.9350   56.4980   20.6830 H   0  0  0  0  0  0  0  0  0  0  0  0
   52.6780   57.7840   21.6120 C   0  0  0  0  0  0  0  0  0  0  0  0
   53.5600   58.3670   22.2110 O   0  0  0  0  0  0  0  0  0  0  0  0
   51.4090   58.1750   21.7850 N   0  0  0  0  0  0  0  0  0  0  0  0
   51.2370   58.9150   22.3880 H   0  0  0  0  0  0  0  0  0  0  0  0
   51.9890   54.6080   20.4520 C   0  0  0  0  0  0  0  0  0  0  0  0
   51.6000   54.2080   21.7170 C   0  0  0  0  0  0  0  0  0  0  0  0
   51.6470   52.8720   22.0650 C   0  0  0  0  0  0  0  0  0  0  0  0
   52.0940   51.9330   21.1470 C   0  0  0  0  0  0  0  0  0  0  0  0
   52.4890   52.3370   19.8810 C   0  0  0  0  0  0  0  0  0  0  0  0
   52.4350   53.6750   19.5350 C   0  0  0  0  0  0  0  0  0  0  0  0
   52.1460   50.6180   21.4890 O   0  0  0  0  0  0  0  0  0  0  0  0
   51.3430   50.1240   21.2740 H   0  0  0  0  0  0  0  0  0  0  0  0
   49.4140   55.9490   19.6660 C   0  0  0  0  0  0  0  0  0  0  0  0
   48.3460   55.8560   20.2420 O   0  0  0  0  0  0  0  0  0  0  0  0
   49.5470   55.4730   18.4090 O   0  0  0  0  0  0  0  0  0  0  0  0
   48.5250   54.5930   17.9390 C   0  0  0  0  0  0  0  0  0  0  0  0
   48.9620   53.1430   18.1570 C   0  0  0  0  0  0  0  0  0  0  0  0
   50.1140   52.8840   17.4070 F   0  0  0  0  0  0  0  0  0  0  0  0
   47.9370   52.2810   17.7510 F   0  0  0  0  0  0  0  0  0  0  0  0
   49.2330   52.9370   19.5140 F   0  0  0  0  0  0  0  0  0  0  0  0
  2  1  1  0  0  0  0
  2  9  1  0  0  0  0
  3  2  2  0  0  0  0
  4  3  1  0  0  0  0
  4 11  1  1  0  0  0
  4  5  1  0  0  0  0
  5  7  1  0  0  0  0
  6  5  1  0  0  0  0
  7  9  1  0  0  0  0
  7  8  2  0  0  0  0
  9 10  1  0  0  0  0
 11 12  2  0  0  0  0
 12 13  1  0  0  0  0
 14 17  1  0  0  0  0
 14 13  2  0  0  0  0
 15 14  1  0  0  0  0
 16 15  2  0  0  0  0
 16 11  1  0  0  0  0
 18 17  1  0  0  0  0
 19 20  2  0  0  0  0
 19  3  1  0  0  0  0
 21 19  1  0  0  0  0
 22 23  1  0  0  0  0
 22 21  1  0  0  0  0
 23 26  1  0  0  0  0
 24 23  1  0  0  0  0
 25 23  1  0  0  0  0
M  END
>  <MODEL>
2

>  <REMARK>
  Name = ZINC00036440
                            x       y       z     vdW  Elec       q    Type
                         _______ _______ _______ _____ _____    ______ ____

>  <TORSDO>
F 6

>  <minimizedAffinity>
-7.8065657145774958

$$$$
ZINC00036440
 OpenBabel10211214113D

 26 27  0  0  1  0  0  0  0  0999 V2000
   51.6480   53.1960   21.9900 C   0  0  0  0  0  0  0  0  0  0  0  0
   51.7700   52.3040   20.7820 C   0  0  0  0  0  0  0  0  0  0  0  0
   51.1080   52.6240   19.6500 C   0  0  0  0  0  0  0  0  0  0  0  0
   51.2590   51.7000   18.4590 C   0  0  1  0  0  0  0  0  0  0  0  0
   52.1210   50.5200   18.6360 N   0  0  0  0  0  0  0  0  0  0  0  0
   52.2570   49.8900   17.9100 H   0  0  0  0  0  0  0  0  0  0  0  0
   52.7180   50.3340   19.8300 C   0  0  0  0  0  0  0  0  0  0  0  0
   53.4310   49.3620   19.9860 O   0  0  0  0  0  0  0  0  0  0  0  0
   52.5500   51.1850   20.8500 N   0  0  0  0  0  0  0  0  0  0  0  0
   53.0060   50.9950   21.6840 H   0  0  0  0  0  0  0  0  0  0  0  0
   49.8850   51.2170   18.0690 C   0  0  0  0  0  0  0  0  0  0  0  0
   49.3680   50.0710   18.6430 C   0  0  0  0  0  0  0  0  0  0  0  0
   48.1070   49.6290   18.2920 C   0  0  0  0  0  0  0  0  0  0  0  0
   47.3640   50.3310   17.3540 C   0  0  0  0  0  0  0  0  0  0  0  0
   47.8870   51.4780   16.7750 C   0  0  0  0  0  0  0  0  0  0  0  0
   49.1470   51.9190   17.1340 C   0  0  0  0  0  0  0  0  0  0  0  0
   46.1250   49.8960   17.0030 O   0  0  0  0  0  0  0  0  0  0  0  0
   45.4230   50.5430   17.1550 H   0  0  0  0  0  0  0  0  0  0  0  0
   50.3020   53.7850   19.5790 C   0  0  0  0  0  0  0  0  0  0  0  0
   49.2000   53.7930   20.0930 O   0  0  0  0  0  0  0  0  0  0  0  0
   50.7560   54.8840   18.9400 O   0  0  0  0  0  0  0  0  0  0  0  0
   50.2920   56.1480   19.4150 C   0  0  0  0  0  0  0  0  0  0  0  0
   51.2360   56.6600   20.5050 C   0  0  0  0  0  0  0  0  0  0  0  0
   51.3970   58.0430   20.3700 F   0  0  0  0  0  0  0  0  0  0  0  0
   52.4800   56.0310   20.3790 F   0  0  0  0  0  0  0  0  0  0  0  0
   50.6940   56.3740   21.7630 F   0  0  0  0  0  0  0  0  0  0  0  0
  2  9  1  0  0  0  0
  2  1  1  0  0  0  0
  3  2  2  0  0  0  0
  4 11  1  1  0  0  0
  4  5  1  0  0  0  0
  4  3  1  0  0  0  0
  5  7  1  0  0  0  0
  6  5  1  0  0  0  0
  7  8  2  0  0  0  0
  7  9  1  0  0  0  0
  9 10  1  0  0  0  0
 11 12  2  0  0  0  0
 13 12  1  0  0  0  0
 14 13  2  0  0  0  0
 15 16  2  0  0  0  0
 15 14  1  0  0  0  0
 16 11  1  0  0  0  0
 17 18  1  0  0  0  0
 17 14  1  0  0  0  0
 19  3  1  0  0  0  0
 19 20  2  0  0  0  0
 21 22  1  0  0  0  0
 21 19  1  0  0  0  0
 22 23  1  0  0  0  0
 23 26  1  0  0  0  0
 24 23  1  0  0  0  0
 25 23  1  0  0  0  0
M  END
>  <MODEL>
3

>  <REMARK>
  Name = ZINC00036440
                            x       y       z     vdW  Elec       q    Type
                         _______ _______ _______ _____ _____    ______ ____

>  <TORSDO>
F 6

>  <minimizedAffinity>
-7.7813639548457427

$$$$
ZINC00036440
 OpenBabel10211214113D

 26 27  0  0  1  0  0  0  0  0999 V2000
   49.5780   52.5160   18.0410 C   0  0  0  0  0  0  0  0  0  0  0  0
   50.2690   52.7450   19.3600 C   0  0  0  0  0  0  0  0  0  0  0  0
   50.1010   53.9190   20.0040 C   0  0  0  0  0  0  0  0  0  0  0  0
   50.8140   54.1070   21.3270 C   0  0  1  0  0  0  0  0  0  0  0  0
   51.6380   52.9850   21.8060 N   0  0  0  0  0  0  0  0  0  0  0  0
   52.1200   53.0450   22.6470 H   0  0  0  0  0  0  0  0  0  0  0  0
   51.7090   51.8720   21.0500 C   0  0  0  0  0  0  0  0  0  0  0  0
   52.3870   50.9400   21.4350 O   0  0  0  0  0  0  0  0  0  0  0  0
   51.0560   51.7590   19.8860 N   0  0  0  0  0  0  0  0  0  0  0  0
   51.1470   50.9320   19.3880 H   0  0  0  0  0  0  0  0  0  0  0  0
   51.7030   55.3180   21.2080 C   0  0  0  0  0  0  0  0  0  0  0  0
   52.4600   55.5090   20.0660 C   0  0  0  0  0  0  0  0  0  0  0  0
   53.2710   56.6210   19.9520 C   0  0  0  0  0  0  0  0  0  0  0  0
   53.3350   57.5410   20.9880 C   0  0  0  0  0  0  0  0  0  0  0  0
   52.5800   57.3450   22.1340 C   0  0  0  0  0  0  0  0  0  0  0  0
   51.7640   56.2340   22.2420 C   0  0  0  0  0  0  0  0  0  0  0  0
   54.1360   58.6330   20.8790 O   0  0  0  0  0  0  0  0  0  0  0  0
   54.6210   58.8480   21.6880 H   0  0  0  0  0  0  0  0  0  0  0  0
   49.2850   54.9390   19.4610 C   0  0  0  0  0  0  0  0  0  0  0  0
   49.4670   55.3220   18.3210 O   0  0  0  0  0  0  0  0  0  0  0  0
   48.3030   55.4870   20.2080 O   0  0  0  0  0  0  0  0  0  0  0  0
   47.8680   56.7980   19.8460 C   0  0  0  0  0  0  0  0  0  0  0  0
   48.6510   57.8350   20.6550 C   0  0  0  0  0  0  0  0  0  0  0  0
   47.9460   59.0430   20.6700 F   0  0  0  0  0  0  0  0  0  0  0  0
   49.9050   58.0350   20.0680 F   0  0  0  0  0  0  0  0  0  0  0  0
   48.8180   57.3750   21.9650 F   0  0  0  0  0  0  0  0  0  0  0  0
  1  2  1  0  0  0  0
  2  9  1  0  0  0  0
  2  3  2  0  0  0  0
  3  4  1  0  0  0  0
  4 11  1  6  0  0  0
  4  5  1  0  0  0  0
  5  6  1  0  0  0  0
  7  8  2  0  0  0  0
  7  5  1  0  0  0  0
  9  7  1  0  0  0  0
 10  9  1  0  0  0  0
 11 16  2  0  0  0  0
 12 11  1  0  0  0  0
 13 12  2  0  0  0  0
 13 14  1  0  0  0  0
 14 15  2  0  0  0  0
 15 16  1  0  0  0  0
 17 14  1  0  0  0  0
 17 18  1  0  0  0  0
 19  3  1  0  0  0  0
 19 21  1  0  0  0  0
 20 19  2  0  0  0  0
 22 21  1  0  0  0  0
 22 23  1  0  0  0  0
 23 24  1  0  0  0  0
 23 26  1  0  0  0  0
 25 23  1  0  0  0  0
M  END
>  <MODEL>
4

>  <REMARK>
  Name = ZINC00036440
                            x       y       z     vdW  Elec       q    Type
                         _______ _______ _______ _____ _____    ______ ____

>  <TORSDO>
F 6

>  <minimizedAffinity>
-7.7529570355515958

$$$$
ZINC00036440
 OpenBabel10211214113D

 26 27  0  0  1  0  0  0  0  0999 V2000
   45.5200   45.6610   15.4600 C   0  0  0  0  0  0  0  0  0  0  0  0
   45.3050   46.7590   16.4700 C   0  0  0  0  0  0  0  0  0  0  0  0
   45.6500   48.0260   16.1570 C   0  0  0  0  0  0  0  0  0  0  0  0
   45.4170   49.0990   17.2010 C   0  0  1  0  0  0  0  0  0  0  0  0
   44.8270   48.6680   18.4790 N   0  0  0  0  0  0  0  0  0  0  0  0
   44.6520   49.3090   19.1880 H   0  0  0  0  0  0  0  0  0  0  0  0
   44.5330   47.3630   18.6440 C   0  0  0  0  0  0  0  0  0  0  0  0
   44.0460   46.9970   19.6960 O   0  0  0  0  0  0  0  0  0  0  0  0
   44.7610   46.4560   17.6850 N   0  0  0  0  0  0  0  0  0  0  0  0
   44.5280   45.5320   17.8650 H   0  0  0  0  0  0  0  0  0  0  0  0
   46.7410   49.7540   17.4980 C   0  0  0  0  0  0  0  0  0  0  0  0
   47.7390   49.0370   18.1310 C   0  0  0  0  0  0  0  0  0  0  0  0
   48.9560   49.6330   18.3990 C   0  0  0  0  0  0  0  0  0  0  0  0
   49.1720   50.9560   18.0430 C   0  0  0  0  0  0  0  0  0  0  0  0
   48.1670   51.6760   17.4150 C   0  0  0  0  0  0  0  0  0  0  0  0
   46.9530   51.0730   17.1430 C   0  0  0  0  0  0  0  0  0  0  0  0
   50.3660   51.5470   18.3110 O   0  0  0  0  0  0  0  0  0  0  0  0
   50.2940   52.3780   18.8010 H   0  0  0  0  0  0  0  0  0  0  0  0
   46.2120   48.3400   14.8970 C   0  0  0  0  0  0  0  0  0  0  0  0
   45.4870   48.6280   13.9630 O   0  0  0  0  0  0  0  0  0  0  0  0
   47.5510   48.3210   14.7320 O   0  0  0  0  0  0  0  0  0  0  0  0
   48.1550   49.5030   14.2060 C   0  0  0  0  0  0  0  0  0  0  0  0
   49.6640   49.4610   14.4590 C   0  0  0  0  0  0  0  0  0  0  0  0
   50.3420   49.4270   13.2360 F   0  0  0  0  0  0  0  0  0  0  0  0
   49.9810   48.3160   15.2000 F   0  0  0  0  0  0  0  0  0  0  0  0
   50.0480   50.5990   15.1750 F   0  0  0  0  0  0  0  0  0  0  0  0
  1  2  1  0  0  0  0
  2  9  1  0  0  0  0
  3  2  2  0  0  0  0
  3  4  1  0  0  0  0
  4 11  1  1  0  0  0
  4  5  1  0  0  0  0
  5  7  1  0  0  0  0
  5  6  1  0  0  0  0
  7  8  2  0  0  0  0
  9 10  1  0  0  0  0
  9  7  1  0  0  0  0
 11 12  2  0  0  0  0
 12 13  1  0  0  0  0
 14 17  1  0  0  0  0
 14 13  2  0  0  0  0
 15 14  1  0  0  0  0
 16 15  2  0  0  0  0
 16 11  1  0  0  0  0
 17 18  1  0  0  0  0
 19  3  1  0  0  0  0
 20 19  2  0  0  0  0
 21 19  1  0  0  0  0
 22 23  1  0  0  0  0
 22 21  1  0  0  0  0
 23 26  1  0  0  0  0
 23 25  1  0  0  0  0
 24 23  1  0  0  0  0
M  END
>  <MODEL>
5

>  <REMARK>
  Name = ZINC00036440
                            x       y       z     vdW  Elec       q    Type
                         _______ _______ _______ _____ _____    ______ ____

>  <TORSDO>
F 6

>  <minimizedAffinity>
-7.6904904692908289

$$$$
ZINC00036440
 OpenBabel10211214113D

 26 27  0  0  1  0  0  0  0  0999 V2000
   47.7840   47.7400   15.9570 C   0  0  0  0  0  0  0  0  0  0  0  0
   48.9250   48.7170   16.0730 C   0  0  0  0  0  0  0  0  0  0  0  0
   49.1580   49.3280   17.2530 C   0  0  0  0  0  0  0  0  0  0  0  0
   50.3160   50.3030   17.3260 C   0  0  1  0  0  0  0  0  0  0  0  0
   51.0970   50.5040   16.0950 N   0  0  0  0  0  0  0  0  0  0  0  0
   51.8510   51.1150   16.0780 H   0  0  0  0  0  0  0  0  0  0  0  0
   50.7420   49.8180   14.9900 C   0  0  0  0  0  0  0  0  0  0  0  0
   51.3810   49.9770   13.9680 O   0  0  0  0  0  0  0  0  0  0  0  0
   49.7080   48.9680   14.9820 N   0  0  0  0  0  0  0  0  0  0  0  0
   49.5030   48.5040   14.1560 H   0  0  0  0  0  0  0  0  0  0  0  0
   49.7690   51.6420   17.7530 C   0  0  0  0  0  0  0  0  0  0  0  0
   48.7950   52.2630   16.9940 C   0  0  0  0  0  0  0  0  0  0  0  0
   48.2890   53.4870   17.3860 C   0  0  0  0  0  0  0  0  0  0  0  0
   48.7660   54.0980   18.5360 C   0  0  0  0  0  0  0  0  0  0  0  0
   49.7480   53.4760   19.2930 C   0  0  0  0  0  0  0  0  0  0  0  0
   50.2470   52.2480   18.9000 C   0  0  0  0  0  0  0  0  0  0  0  0
   48.2740   55.3050   18.9200 O   0  0  0  0  0  0  0  0  0  0  0  0
   47.3350   55.4270   18.7240 H   0  0  0  0  0  0  0  0  0  0  0  0
   48.3490   49.0670   18.3840 C   0  0  0  0  0  0  0  0  0  0  0  0
   48.8640   48.8190   19.4570 O   0  0  0  0  0  0  0  0  0  0  0  0
   47.0040   49.0940   18.2710 O   0  0  0  0  0  0  0  0  0  0  0  0
   46.2770   48.0620   18.9380 C   0  0  0  0  0  0  0  0  0  0  0  0
   44.9080   47.8920   18.2760 C   0  0  0  0  0  0  0  0  0  0  0  0
   43.9470   47.6190   19.2550 F   0  0  0  0  0  0  0  0  0  0  0  0
   44.9590   46.8330   17.3630 F   0  0  0  0  0  0  0  0  0  0  0  0
   44.5670   49.0700   17.6030 F   0  0  0  0  0  0  0  0  0  0  0  0
  1  2  1  0  0  0  0
  2  3  2  0  0  0  0
  3  4  1  0  0  0  0
  3 19  1  0  0  0  0
  4 11  1  6  0  0  0
  5  4  1  0  0  0  0
  6  5  1  0  0  0  0
  7  5  1  0  0  0  0
  8  7  2  0  0  0  0
  9  7  1  0  0  0  0
  9  2  1  0  0  0  0
 10  9  1  0  0  0  0
 11 16  2  0  0  0  0
 12 13  2  0  0  0  0
 12 11  1  0  0  0  0
 13 14  1  0  0  0  0
 14 17  1  0  0  0  0
 14 15  2  0  0  0  0
 16 15  1  0  0  0  0
 18 17  1  0  0  0  0
 19 20  2  0  0  0  0
 21 19  1  0  0  0  0
 21 22  1  0  0  0  0
 23 22  1  0  0  0  0
 23 24  1  0  0  0  0
 25 23  1  0  0  0  0
 26 23  1  0  0  0  0
M  END
>  <MODEL>
6

>  <REMARK>
  Name = ZINC00036440
                            x       y       z     vdW  Elec       q    Type
                         _______ _______ _______ _____ _____    ______ ____

>  <TORSDO>
F 6

>  <minimizedAffinity>
-7.5766116934309764

$$$$
ZINC00036440
 OpenBabel10211214113D

 26 27  0  0  1  0  0  0  0  0999 V2000
   48.1480   56.3760   20.2750 C   0  0  0  0  0  0  0  0  0  0  0  0
   49.5690   55.8770   20.2510 C   0  0  0  0  0  0  0  0  0  0  0  0
   49.9600   55.0300   19.2750 C   0  0  0  0  0  0  0  0  0  0  0  0
   51.3980   54.5530   19.2890 C   0  0  1  0  0  0  0  0  0  0  0  0
   52.2570   55.0570   20.3720 N   0  0  0  0  0  0  0  0  0  0  0  0
   53.1880   54.7880   20.4340 H   0  0  0  0  0  0  0  0  0  0  0  0
   51.7230   55.9020   21.2760 C   0  0  0  0  0  0  0  0  0  0  0  0
   52.4240   56.3240   22.1740 O   0  0  0  0  0  0  0  0  0  0  0  0
   50.4430   56.2910   21.2160 N   0  0  0  0  0  0  0  0  0  0  0  0
   50.1180   56.9010   21.8960 H   0  0  0  0  0  0  0  0  0  0  0  0
   51.3870   53.0480   19.3660 C   0  0  0  0  0  0  0  0  0  0  0  0
   51.8530   52.2990   18.3020 C   0  0  0  0  0  0  0  0  0  0  0  0
   51.8490   50.9190   18.3730 C   0  0  0  0  0  0  0  0  0  0  0  0
   51.3670   50.2850   19.5090 C   0  0  0  0  0  0  0  0  0  0  0  0
   50.8940   51.0390   20.5730 C   0  0  0  0  0  0  0  0  0  0  0  0
   50.9060   52.4190   20.5000 C   0  0  0  0  0  0  0  0  0  0  0  0
   51.3580   48.9280   19.5790 O   0  0  0  0  0  0  0  0  0  0  0  0
   52.1760   48.5120   19.2730 H   0  0  0  0  0  0  0  0  0  0  0  0
   49.0560   54.6020   18.2740 C   0  0  0  0  0  0  0  0  0  0  0  0
   48.8310   55.3140   17.3130 O   0  0  0  0  0  0  0  0  0  0  0  0
   48.4430   53.4050   18.3860 O   0  0  0  0  0  0  0  0  0  0  0  0
   47.7760   52.9080   17.2250 C   0  0  0  0  0  0  0  0  0  0  0  0
   48.2030   51.4610   16.9720 C   0  0  0  0  0  0  0  0  0  0  0  0
   49.3420   51.4450   16.1600 F   0  0  0  0  0  0  0  0  0  0  0  0
   47.1650   50.7730   16.3320 F   0  0  0  0  0  0  0  0  0  0  0  0
   48.4900   50.8400   18.1920 F   0  0  0  0  0  0  0  0  0  0  0  0
  2  1  1  0  0  0  0
  2  9  1  0  0  0  0
  3  4  1  0  0  0  0
  3  2  2  0  0  0  0
  4 11  1  1  0  0  0
  4  5  1  0  0  0  0
  5  6  1  0  0  0  0
  5  7  1  0  0  0  0
  7  8  2  0  0  0  0
  9  7  1  0  0  0  0
  9 10  1  0  0  0  0
 11 16  2  0  0  0  0
 12 13  2  0  0  0  0
 12 11  1  0  0  0  0
 13 14  1  0  0  0  0
 14 17  1  0  0  0  0
 14 15  2  0  0  0  0
 16 15  1  0  0  0  0
 18 17  1  0  0  0  0
 19 21  1  0  0  0  0
 19  3  1  0  0  0  0
 20 19  2  0  0  0  0
 22 21  1  0  0  0  0
 23 22  1  0  0  0  0
 23 26  1  0  0  0  0
 24 23  1  0  0  0  0
 25 23  1  0  0  0  0
M  END
>  <MODEL>
7

>  <REMARK>
  Name = ZINC00036440
                            x       y       z     vdW  Elec       q    Type
                         _______ _______ _______ _____ _____    ______ ____

>  <TORSDO>
F 6

>  <minimizedAffinity>
-7.4209718743562165

$$$$
ZINC00036440
 OpenBabel10211214113D

 26 27  0  0  1  0  0  0  0  0999 V2000
   48.9270   49.7860   15.0510 C   0  0  0  0  0  0  0  0  0  0  0  0
   50.0300   50.0960   16.0300 C   0  0  0  0  0  0  0  0  0  0  0  0
   49.7300   50.2680   17.3340 C   0  0  0  0  0  0  0  0  0  0  0  0
   50.8690   50.5780   18.2850 C   0  0  1  0  0  0  0  0  0  0  0  0
   52.2180   50.6650   17.7030 N   0  0  0  0  0  0  0  0  0  0  0  0
   52.9890   50.8600   18.2600 H   0  0  0  0  0  0  0  0  0  0  0  0
   52.3600   50.4670   16.3770 C   0  0  0  0  0  0  0  0  0  0  0  0
   53.4700   50.5370   15.8860 O   0  0  0  0  0  0  0  0  0  0  0  0
   51.3160   50.1960   15.5830 N   0  0  0  0  0  0  0  0  0  0  0  0
   51.4840   50.0630   14.6370 H   0  0  0  0  0  0  0  0  0  0  0  0
   50.5670   51.8930   18.9580 C   0  0  0  0  0  0  0  0  0  0  0  0
   50.2240   52.9940   18.1970 C   0  0  0  0  0  0  0  0  0  0  0  0
   49.9420   54.1980   18.8120 C   0  0  0  0  0  0  0  0  0  0  0  0
   50.0140   54.3050   20.1930 C   0  0  0  0  0  0  0  0  0  0  0  0
   50.3650   53.2000   20.9540 C   0  0  0  0  0  0  0  0  0  0  0  0
   50.6410   51.9950   20.3350 C   0  0  0  0  0  0  0  0  0  0  0  0
   49.7420   55.4900   20.8000 O   0  0  0  0  0  0  0  0  0  0  0  0
   48.7990   55.6550   20.9380 H   0  0  0  0  0  0  0  0  0  0  0  0
   48.3980   50.1630   17.7980 C   0  0  0  0  0  0  0  0  0  0  0  0
   47.5790   51.0090   17.4930 O   0  0  0  0  0  0  0  0  0  0  0  0
   48.0360   49.1230   18.5790 O   0  0  0  0  0  0  0  0  0  0  0  0
   46.7020   48.6330   18.4280 C   0  0  0  0  0  0  0  0  0  0  0  0
   46.6660   47.5910   17.3090 C   0  0  0  0  0  0  0  0  0  0  0  0
   47.9410   47.0410   17.1410 F   0  0  0  0  0  0  0  0  0  0  0  0
   46.2600   48.2020   16.1160 F   0  0  0  0  0  0  0  0  0  0  0  0
   45.7610   46.5790   17.6440 F   0  0  0  0  0  0  0  0  0  0  0  0
  1  2  1  0  0  0  0
  2  3  2  0  0  0  0
  3 19  1  0  0  0  0
  3  4  1  0  0  0  0
  4 11  1  6  0  0  0
  5  6  1  0  0  0  0
  5  4  1  0  0  0  0
  7  5  1  0  0  0  0
  8  7  2  0  0  0  0
  9  2  1  0  0  0  0
  9  7  1  0  0  0  0
 10  9  1  0  0  0  0
 11 16  2  0  0  0  0
 12 13  2  0  0  0  0
 12 11  1  0  0  0  0
 13 14  1  0  0  0  0
 14 17  1  0  0  0  0
 14 15  2  0  0  0  0
 16 15  1  0  0  0  0
 17 18  1  0  0  0  0
 19 21  1  0  0  0  0
 20 19  2  0  0  0  0
 22 21  1  0  0  0  0
 23 26  1  0  0  0  0
 23 22  1  0  0  0  0
 24 23  1  0  0  0  0
 25 23  1  0  0  0  0
M  END
>  <MODEL>
8

>  <REMARK>
  Name = ZINC00036440
                            x       y       z     vdW  Elec       q    Type
                         _______ _______ _______ _____ _____    ______ ____

>  <TORSDO>
F 6

>  <minimizedAffinity>
-7.1932541303973121

$$$$
ZINC00036440
 OpenBabel10211214113D

 26 27  0  0  1  0  0  0  0  0999 V2000
   51.6900   53.1620   21.9390 C   0  0  0  0  0  0  0  0  0  0  0  0
   51.7870   52.2550   20.7390 C   0  0  0  0  0  0  0  0  0  0  0  0
   51.0820   52.5490   19.6260 C   0  0  0  0  0  0  0  0  0  0  0  0
   51.2080   51.6110   18.4430 C   0  0  1  0  0  0  0  0  0  0  0  0
   52.0960   50.4480   18.6060 N   0  0  0  0  0  0  0  0  0  0  0  0
   52.2190   49.8110   17.8840 H   0  0  0  0  0  0  0  0  0  0  0  0
   52.7360   50.2880   19.7810 C   0  0  0  0  0  0  0  0  0  0  0  0
   53.4710   49.3310   19.9260 O   0  0  0  0  0  0  0  0  0  0  0  0
   52.5870   51.1500   20.7950 N   0  0  0  0  0  0  0  0  0  0  0  0
   53.0750   50.9800   21.6160 H   0  0  0  0  0  0  0  0  0  0  0  0
   49.8310   51.1000   18.1060 C   0  0  0  0  0  0  0  0  0  0  0  0
   49.3610   49.9420   18.6960 C   0  0  0  0  0  0  0  0  0  0  0  0
   48.0970   49.4740   18.3930 C   0  0  0  0  0  0  0  0  0  0  0  0
   47.3020   50.1630   17.4890 C   0  0  0  0  0  0  0  0  0  0  0  0
   47.7780   51.3220   16.8930 C   0  0  0  0  0  0  0  0  0  0  0  0
   49.0410   51.7890   17.2040 C   0  0  0  0  0  0  0  0  0  0  0  0
   46.0610   49.7020   17.1850 O   0  0  0  0  0  0  0  0  0  0  0  0
   45.6050   49.2790   17.9260 H   0  0  0  0  0  0  0  0  0  0  0  0
   50.2540   53.6950   19.5660 C   0  0  0  0  0  0  0  0  0  0  0  0
   49.3440   53.8300   20.3620 O   0  0  0  0  0  0  0  0  0  0  0  0
   50.4740   54.6380   18.6260 O   0  0  0  0  0  0  0  0  0  0  0  0
   49.9750   55.9490   18.8950 C   0  0  0  0  0  0  0  0  0  0  0  0
   48.6770   56.1690   18.1140 C   0  0  0  0  0  0  0  0  0  0  0  0
   48.1950   54.9390   17.6540 F   0  0  0  0  0  0  0  0  0  0  0  0
   48.9250   57.0100   17.0230 F   0  0  0  0  0  0  0  0  0  0  0  0
   47.7250   56.7600   18.9510 F   0  0  0  0  0  0  0  0  0  0  0  0
  2  9  1  0  0  0  0
  2  1  1  0  0  0  0
  3  2  2  0  0  0  0
  4 11  1  1  0  0  0
  4  5  1  0  0  0  0
  4  3  1  0  0  0  0
  5  7  1  0  0  0  0
  6  5  1  0  0  0  0
  7  8  2  0  0  0  0
  7  9  1  0  0  0  0
  9 10  1  0  0  0  0
 11 12  2  0  0  0  0
 13 12  1  0  0  0  0
 14 13  2  0  0  0  0
 15 16  2  0  0  0  0
 15 14  1  0  0  0  0
 16 11  1  0  0  0  0
 17 14  1  0  0  0  0
 17 18  1  0  0  0  0
 19  3  1  0  0  0  0
 19 20  2  0  0  0  0
 21 22  1  0  0  0  0
 21 19  1  0  0  0  0
 23 22  1  0  0  0  0
 23 26  1  0  0  0  0
 24 23  1  0  0  0  0
 25 23  1  0  0  0  0
M  END
>  <MODEL>
9

>  <REMARK>
  Name = ZINC00036440
                            x       y       z     vdW  Elec       q    Type
                         _______ _______ _______ _____ _____    ______ ____

>  <TORSDO>
F 6

>  <minimizedAffinity>
-7.1455790029388524

$$$$
ZINC56173457
 OpenBabel10211214123D

 25 26  0  0  1  0  0  0  0  0999 V2000
   52.5200   51.2050   19.5370 C   0  0  0  0  0  0  0  0  0  0  0  0
   51.0730   51.6410   19.3000 C   0  0  1  0  0  0  0  0  0  0  0  0
   51.0110   53.1430   19.1940 C   0  0  0  0  0  0  0  0  0  0  0  0
   50.0980   53.8320   19.9060 N   0  0  0  0  0  0  0  0  0  0  0  0
   49.4800   53.3610   20.4880 H   0  0  0  0  0  0  0  0  0  0  0  0
   50.0420   55.1750   19.8120 C   0  0  0  0  0  0  0  0  0  0  0  0
   49.1290   55.8640   20.5250 N   0  0  0  0  0  0  0  0  0  0  0  0
   48.5120   55.3930   21.1060 H   0  0  0  0  0  0  0  0  0  0  0  0
   50.8160   55.7660   19.0840 O   0  0  0  0  0  0  0  0  0  0  0  0
   51.7830   53.7320   18.4680 O   0  0  0  0  0  0  0  0  0  0  0  0
   49.0700   57.3240   20.4220 C   0  0  0  0  0  0  0  0  0  0  0  0
   48.8340   58.1140   21.7110 C   0  0  0  0  0  0  0  0  0  0  0  0
   47.7180   57.9950   20.6720 C   0  0  0  0  0  0  0  0  0  0  0  0
   50.5800   51.0420   18.0580 N   0  0  0  0  0  0  0  0  0  0  0  0
   51.1450   51.0280   17.2680 H   0  0  0  0  0  0  0  0  0  0  0  0
   49.2950   50.4920   18.0080 C   0  0  0  0  0  0  0  0  0  0  0  0
   48.9980   49.3510   18.7400 C   0  0  0  0  0  0  0  0  0  0  0  0
   47.7300   48.8080   18.6900 C   0  0  0  0  0  0  0  0  0  0  0  0
   46.7510   49.4030   17.9090 C   0  0  0  0  0  0  0  0  0  0  0  0
   47.0460   50.5440   17.1770 C   0  0  0  0  0  0  0  0  0  0  0  0
   48.3120   51.0910   17.2290 C   0  0  0  0  0  0  0  0  0  0  0  0
   45.5010   48.8690   17.8600 O   0  0  0  0  0  0  0  0  0  0  0  0
   45.3940   47.4530   18.0250 C   0  0  0  0  0  0  0  0  0  0  0  0
   44.7410   46.8430   16.7830 C   0  0  0  0  0  0  0  0  0  0  0  0
   44.5390   47.1460   19.2550 C   0  0  0  0  0  0  0  0  0  0  0  0
  2 14  1  6  0  0  0
  2  1  1  0  0  0  0
  3  2  1  0  0  0  0
  3  4  1  0  0  0  0
  4  5  1  0  0  0  0
  6  4  1  0  0  0  0
  6  7  1  0  0  0  0
  7  8  1  0  0  0  0
  9  6  2  0  0  0  0
 10  3  2  0  0  0  0
 11  7  1  0  0  0  0
 11 13  1  0  0  0  0
 11 12  1  0  0  0  0
 13 12  1  0  0  0  0
 15 14  1  0  0  0  0
 16 14  1  0  0  0  0
 16 17  2  0  0  0  0
 18 17  1  0  0  0  0
 19 18  2  0  0  0  0
 20 21  2  0  0  0  0
 20 19  1  0  0  0  0
 21 16  1  0  0  0  0
 22 19  1  0  0  0  0
 22 23  1  0  0  0  0
 23 25  1  0  0  0  0
 24 23  1  0  0  0  0
M  END
>  <MODEL>
1

>  <REMARK>
  Name = ZINC56173457
                            x       y       z     vdW  Elec       q    Type
                         _______ _______ _______ _____ _____    ______ ____

>  <TORSDO>
F 6

>  <minimizedAffinity>
-7.7475317496223584

$$$$
ZINC56173457
 OpenBabel10211214123D

 25 26  0  0  1  0  0  0  0  0999 V2000
   52.4740   49.8360   19.8730 C   0  0  0  0  0  0  0  0  0  0  0  0
   51.1830   50.6330   20.0660 C   0  0  1  0  0  0  0  0  0  0  0  0
   51.4590   51.8350   20.9330 C   0  0  0  0  0  0  0  0  0  0  0  0
   50.8960   53.0230   20.6380 N   0  0  0  0  0  0  0  0  0  0  0  0
   50.3130   53.1050   19.8670 H   0  0  0  0  0  0  0  0  0  0  0  0
   51.1420   54.0980   21.4130 C   0  0  0  0  0  0  0  0  0  0  0  0
   50.5790   55.2860   21.1170 N   0  0  0  0  0  0  0  0  0  0  0  0
   49.9960   55.3680   20.3470 H   0  0  0  0  0  0  0  0  0  0  0  0
   51.8730   53.9950   22.3800 O   0  0  0  0  0  0  0  0  0  0  0  0
   52.1870   51.7320   21.8970 O   0  0  0  0  0  0  0  0  0  0  0  0
   50.8470   56.4530   21.9610 C   0  0  0  0  0  0  0  0  0  0  0  0
   49.8820   57.6360   21.8580 C   0  0  0  0  0  0  0  0  0  0  0  0
   51.2870   57.7420   21.2640 C   0  0  0  0  0  0  0  0  0  0  0  0
   50.6820   51.0760   18.7630 N   0  0  0  0  0  0  0  0  0  0  0  0
   51.2140   51.6790   18.2190 H   0  0  0  0  0  0  0  0  0  0  0  0
   49.4390   50.6320   18.3030 C   0  0  0  0  0  0  0  0  0  0  0  0
   48.6850   51.4310   17.4540 C   0  0  0  0  0  0  0  0  0  0  0  0
   47.4570   50.9910   17.0010 C   0  0  0  0  0  0  0  0  0  0  0  0
   46.9760   49.7510   17.3930 C   0  0  0  0  0  0  0  0  0  0  0  0
   47.7270   48.9520   18.2420 C   0  0  0  0  0  0  0  0  0  0  0  0
   48.9580   49.3880   18.6920 C   0  0  0  0  0  0  0  0  0  0  0  0
   45.7660   49.3190   16.9460 O   0  0  0  0  0  0  0  0  0  0  0  0
   45.7410   48.0750   16.2450 C   0  0  0  0  0  0  0  0  0  0  0  0
   46.0810   48.3130   14.7720 C   0  0  0  0  0  0  0  0  0  0  0  0
   44.3460   47.4570   16.3530 C   0  0  0  0  0  0  0  0  0  0  0  0
  1  2  1  0  0  0  0
  2 14  1  6  0  0  0
  2  3  1  0  0  0  0
  3 10  2  0  0  0  0
  4  3  1  0  0  0  0
  4  6  1  0  0  0  0
  5  4  1  0  0  0  0
  6  9  2  0  0  0  0
  7  6  1  0  0  0  0
  7 11  1  0  0  0  0
  8  7  1  0  0  0  0
 12 11  1  0  0  0  0
 13 12  1  0  0  0  0
 13 11  1  0  0  0  0
 15 14  1  0  0  0  0
 16 21  1  0  0  0  0
 16 14  1  0  0  0  0
 17 16  2  0  0  0  0
 18 19  2  0  0  0  0
 18 17  1  0  0  0  0
 19 20  1  0  0  0  0
 20 21  2  0  0  0  0
 22 19  1  0  0  0  0
 23 25  1  0  0  0  0
 23 22  1  0  0  0  0
 24 23  1  0  0  0  0
M  END
>  <MODEL>
2

>  <REMARK>
  Name = ZINC56173457
                            x       y       z     vdW  Elec       q    Type
                         _______ _______ _______ _____ _____    ______ ____

>  <TORSDO>
F 6

>  <minimizedAffinity>
-7.6712834578642255

$$$$
ZINC56173457
 OpenBabel10211214123D

 25 26  0  0  1  0  0  0  0  0999 V2000
   52.6710   50.0060   19.8660 C   0  0  0  0  0  0  0  0  0  0  0  0
   51.6910   51.0860   19.4040 C   0  0  1  0  0  0  0  0  0  0  0  0
   50.6410   50.4660   18.5190 C   0  0  0  0  0  0  0  0  0  0  0  0
   49.5810   49.8380   19.0670 N   0  0  0  0  0  0  0  0  0  0  0  0
   49.4950   49.7860   20.0330 H   0  0  0  0  0  0  0  0  0  0  0  0
   48.6410   49.2840   18.2770 C   0  0  0  0  0  0  0  0  0  0  0  0
   47.5820   48.6560   18.8260 N   0  0  0  0  0  0  0  0  0  0  0  0
   47.4960   48.6040   19.7900 H   0  0  0  0  0  0  0  0  0  0  0  0
   48.7490   49.3490   17.0670 O   0  0  0  0  0  0  0  0  0  0  0  0
   50.7480   50.5310   17.3130 O   0  0  0  0  0  0  0  0  0  0  0  0
   46.5610   48.0540   17.9650 C   0  0  0  0  0  0  0  0  0  0  0  0
   45.2670   48.8410   17.7480 C   0  0  0  0  0  0  0  0  0  0  0  0
   45.2630   47.5900   18.6280 C   0  0  0  0  0  0  0  0  0  0  0  0
   51.0490   51.6950   20.5710 N   0  0  0  0  0  0  0  0  0  0  0  0
   50.8380   51.1510   21.3480 H   0  0  0  0  0  0  0  0  0  0  0  0
   50.7380   53.0580   20.5670 C   0  0  0  0  0  0  0  0  0  0  0  0
   51.4030   53.9250   21.4250 C   0  0  0  0  0  0  0  0  0  0  0  0
   51.0950   55.2710   21.4210 C   0  0  0  0  0  0  0  0  0  0  0  0
   50.1240   55.7580   20.5600 C   0  0  0  0  0  0  0  0  0  0  0  0
   49.4590   54.8930   19.7030 C   0  0  0  0  0  0  0  0  0  0  0  0
   49.7680   53.5480   19.7020 C   0  0  0  0  0  0  0  0  0  0  0  0
   49.8210   57.0850   20.5560 O   0  0  0  0  0  0  0  0  0  0  0  0
   48.6330   57.4810   21.2430 C   0  0  0  0  0  0  0  0  0  0  0  0
   47.6330   58.0590   20.2390 C   0  0  0  0  0  0  0  0  0  0  0  0
   48.9780   58.5420   22.2880 C   0  0  0  0  0  0  0  0  0  0  0  0
  2  3  1  1  0  0  0
  2  1  1  0  0  0  0
  2 14  1  0  0  0  0
  3  4  1  0  0  0  0
  4  5  1  0  0  0  0
  6  7  1  0  0  0  0
  6  4  1  0  0  0  0
  7  8  1  0  0  0  0
  9  6  2  0  0  0  0
 10  3  2  0  0  0  0
 11 13  1  0  0  0  0
 11  7  1  0  0  0  0
 12 11  1  0  0  0  0
 12 13  1  0  0  0  0
 14 15  1  0  0  0  0
 16 14  1  0  0  0  0
 16 17  2  0  0  0  0
 18 17  1  0  0  0  0
 19 18  2  0  0  0  0
 20 19  1  0  0  0  0
 21 20  2  0  0  0  0
 21 16  1  0  0  0  0
 22 19  1  0  0  0  0
 22 23  1  0  0  0  0
 23 25  1  0  0  0  0
 24 23  1  0  0  0  0
M  END
>  <MODEL>
3

>  <REMARK>
  Name = ZINC56173457
                            x       y       z     vdW  Elec       q    Type
                         _______ _______ _______ _____ _____    ______ ____

>  <TORSDO>
F 6

>  <minimizedAffinity>
-7.5363666888324357

$$$$
ZINC56173457
 OpenBabel10211214123D

 25 26  0  0  1  0  0  0  0  0999 V2000
   52.6840   50.0950   19.5490 C   0  0  0  0  0  0  0  0  0  0  0  0
   51.3530   50.7980   19.2770 C   0  0  1  0  0  0  0  0  0  0  0  0
   50.3260   49.7810   18.8490 C   0  0  0  0  0  0  0  0  0  0  0  0
   49.7990   49.8360   17.6100 N   0  0  0  0  0  0  0  0  0  0  0  0
   50.0810   50.5310   16.9930 H   0  0  0  0  0  0  0  0  0  0  0  0
   48.8800   48.9270   17.2260 C   0  0  0  0  0  0  0  0  0  0  0  0
   48.3530   48.9830   15.9870 N   0  0  0  0  0  0  0  0  0  0  0  0
   48.6350   49.6770   15.3710 H   0  0  0  0  0  0  0  0  0  0  0  0
   48.5270   48.0570   17.9990 O   0  0  0  0  0  0  0  0  0  0  0  0
   49.9740   48.9140   19.6190 O   0  0  0  0  0  0  0  0  0  0  0  0
   47.3550   47.9940   15.5720 C   0  0  0  0  0  0  0  0  0  0  0  0
   46.5400   48.2990   14.3130 C   0  0  0  0  0  0  0  0  0  0  0  0
   45.8810   48.3860   15.6900 C   0  0  0  0  0  0  0  0  0  0  0  0
   50.8970   51.4700   20.4960 N   0  0  0  0  0  0  0  0  0  0  0  0
   50.7950   50.9650   21.3190 H   0  0  0  0  0  0  0  0  0  0  0  0
   50.6100   52.8380   20.4740 C   0  0  0  0  0  0  0  0  0  0  0  0
   51.1780   53.6830   21.4190 C   0  0  0  0  0  0  0  0  0  0  0  0
   50.8930   55.0340   21.3970 C   0  0  0  0  0  0  0  0  0  0  0  0
   50.0400   55.5480   20.4320 C   0  0  0  0  0  0  0  0  0  0  0  0
   49.4710   54.7050   19.4880 C   0  0  0  0  0  0  0  0  0  0  0  0
   49.7590   53.3550   19.5050 C   0  0  0  0  0  0  0  0  0  0  0  0
   49.7600   56.8790   20.4120 O   0  0  0  0  0  0  0  0  0  0  0  0
   48.6220   57.3140   21.1590 C   0  0  0  0  0  0  0  0  0  0  0  0
   47.5610   57.8590   20.2010 C   0  0  0  0  0  0  0  0  0  0  0  0
   49.0430   58.4140   22.1340 C   0  0  0  0  0  0  0  0  0  0  0  0
  2  3  1  1  0  0  0
  2  1  1  0  0  0  0
  2 14  1  0  0  0  0
  3 10  2  0  0  0  0
  4  3  1  0  0  0  0
  5  4  1  0  0  0  0
  6  4  1  0  0  0  0
  6  9  2  0  0  0  0
  7  6  1  0  0  0  0
  8  7  1  0  0  0  0
 11 13  1  0  0  0  0
 11  7  1  0  0  0  0
 12 11  1  0  0  0  0
 12 13  1  0  0  0  0
 14 15  1  0  0  0  0
 16 14  1  0  0  0  0
 16 17  2  0  0  0  0
 18 17  1  0  0  0  0
 19 18  2  0  0  0  0
 20 21  2  0  0  0  0
 20 19  1  0  0  0  0
 21 16  1  0  0  0  0
 22 19  1  0  0  0  0
 22 23  1  0  0  0  0
 23 25  1  0  0  0  0
 24 23  1  0  0  0  0
M  END
>  <MODEL>
4

>  <REMARK>
  Name = ZINC56173457
                            x       y       z     vdW  Elec       q    Type
                         _______ _______ _______ _____ _____    ______ ____

>  <TORSDO>
F 6

>  <minimizedAffinity>
-7.35758065398237

$$$$
ZINC56173457
 OpenBabel10211214123D

 25 26  0  0  1  0  0  0  0  0999 V2000
   52.2570   50.8850   19.0700 C   0  0  0  0  0  0  0  0  0  0  0  0
   50.9840   51.5290   18.5170 C   0  0  1  0  0  0  0  0  0  0  0  0
   51.0480   53.0210   18.7180 C   0  0  0  0  0  0  0  0  0  0  0  0
   49.9900   53.6780   19.2350 N   0  0  0  0  0  0  0  0  0  0  0  0
   49.1880   53.1890   19.4780 H   0  0  0  0  0  0  0  0  0  0  0  0
   50.0460   55.0120   19.4150 C   0  0  0  0  0  0  0  0  0  0  0  0
   48.9880   55.6680   19.9320 N   0  0  0  0  0  0  0  0  0  0  0  0
   48.1860   55.1800   20.1750 H   0  0  0  0  0  0  0  0  0  0  0  0
   51.0520   55.6250   19.1110 O   0  0  0  0  0  0  0  0  0  0  0  0
   52.0500   53.6320   18.4150 O   0  0  0  0  0  0  0  0  0  0  0  0
   49.0510   57.1180   20.1280 C   0  0  0  0  0  0  0  0  0  0  0  0
   49.1450   57.6340   21.5650 C   0  0  0  0  0  0  0  0  0  0  0  0
   47.8430   57.7950   20.7780 C   0  0  0  0  0  0  0  0  0  0  0  0
   50.8680   51.2330   17.0870 N   0  0  0  0  0  0  0  0  0  0  0  0
   51.4600   51.6670   16.4530 H   0  0  0  0  0  0  0  0  0  0  0  0
   49.9040   50.3250   16.6370 C   0  0  0  0  0  0  0  0  0  0  0  0
   49.6900   50.1560   15.2750 C   0  0  0  0  0  0  0  0  0  0  0  0
   48.7380   49.2610   14.8310 C   0  0  0  0  0  0  0  0  0  0  0  0
   47.9950   48.5290   15.7450 C   0  0  0  0  0  0  0  0  0  0  0  0
   48.2070   48.6960   17.1060 C   0  0  0  0  0  0  0  0  0  0  0  0
   49.1630   49.5880   17.5510 C   0  0  0  0  0  0  0  0  0  0  0  0
   47.0570   47.6460   15.3070 O   0  0  0  0  0  0  0  0  0  0  0  0
   45.8580   48.1940   14.7560 C   0  0  0  0  0  0  0  0  0  0  0  0
   44.6680   47.7970   15.6320 C   0  0  0  0  0  0  0  0  0  0  0  0
   45.6530   47.6520   13.3400 C   0  0  0  0  0  0  0  0  0  0  0  0
  2 14  1  6  0  0  0
  2  3  1  0  0  0  0
  2  1  1  0  0  0  0
  3  4  1  0  0  0  0
  4  6  1  0  0  0  0
  4  5  1  0  0  0  0
  6  7  1  0  0  0  0
  7 11  1  0  0  0  0
  7  8  1  0  0  0  0
  9  6  2  0  0  0  0
 10  3  2  0  0  0  0
 11 13  1  0  0  0  0
 11 12  1  0  0  0  0
 13 12  1  0  0  0  0
 15 14  1  0  0  0  0
 16 14  1  0  0  0  0
 16 21  2  0  0  0  0
 17 16  1  0  0  0  0
 18 17  2  0  0  0  0
 18 19  1  0  0  0  0
 19 20  2  0  0  0  0
 20 21  1  0  0  0  0
 22 19  1  0  0  0  0
 23 22  1  0  0  0  0
 23 24  1  0  0  0  0
 25 23  1  0  0  0  0
M  END
>  <MODEL>
5

>  <REMARK>
  Name = ZINC56173457
                            x       y       z     vdW  Elec       q    Type
                         _______ _______ _______ _____ _____    ______ ____

>  <TORSDO>
F 6

>  <minimizedAffinity>
-7.2231606367794132

$$$$
ZINC56173457
 OpenBabel10211214123D

 25 26  0  0  1  0  0  0  0  0999 V2000
   52.4660   55.4280   19.8980 C   0  0  0  0  0  0  0  0  0  0  0  0
   51.0860   55.3240   19.2460 C   0  0  1  0  0  0  0  0  0  0  0  0
   50.9030   53.9410   18.6750 C   0  0  0  0  0  0  0  0  0  0  0  0
   49.6630   53.4570   18.4670 N   0  0  0  0  0  0  0  0  0  0  0  0
   48.8880   53.9990   18.6850 H   0  0  0  0  0  0  0  0  0  0  0  0
   49.4980   52.2200   17.9560 C   0  0  0  0  0  0  0  0  0  0  0  0
   48.2570   51.7360   17.7480 N   0  0  0  0  0  0  0  0  0  0  0  0
   47.4830   52.2780   17.9660 H   0  0  0  0  0  0  0  0  0  0  0  0
   50.4690   51.5410   17.6830 O   0  0  0  0  0  0  0  0  0  0  0  0
   51.8710   53.2650   18.4030 O   0  0  0  0  0  0  0  0  0  0  0  0
   48.0800   50.3930   17.1930 C   0  0  0  0  0  0  0  0  0  0  0  0
   46.6740   49.7900   17.2370 C   0  0  0  0  0  0  0  0  0  0  0  0
   47.7630   49.2600   18.1710 C   0  0  0  0  0  0  0  0  0  0  0  0
   50.0510   55.5790   20.2500 N   0  0  0  0  0  0  0  0  0  0  0  0
   49.9830   55.0080   21.0320 H   0  0  0  0  0  0  0  0  0  0  0  0
   49.1600   56.6440   20.0810 C   0  0  0  0  0  0  0  0  0  0  0  0
   48.6180   56.9060   18.8300 C   0  0  0  0  0  0  0  0  0  0  0  0
   47.7400   57.9580   18.6640 C   0  0  0  0  0  0  0  0  0  0  0  0
   47.3970   58.7530   19.7470 C   0  0  0  0  0  0  0  0  0  0  0  0
   47.9380   58.4930   20.9980 C   0  0  0  0  0  0  0  0  0  0  0  0
   48.8130   57.4380   21.1670 C   0  0  0  0  0  0  0  0  0  0  0  0
   46.5310   59.7890   19.5830 O   0  0  0  0  0  0  0  0  0  0  0  0
   47.0090   60.9260   18.8620 C   0  0  0  0  0  0  0  0  0  0  0  0
   46.7650   62.1920   19.6860 C   0  0  0  0  0  0  0  0  0  0  0  0
   46.2670   61.0340   17.5290 C   0  0  0  0  0  0  0  0  0  0  0  0
  2  3  1  1  0  0  0
  2  1  1  0  0  0  0
  2 14  1  0  0  0  0
  4  3  1  0  0  0  0
  4  5  1  0  0  0  0
  6  4  1  0  0  0  0
  7  6  1  0  0  0  0
  7  8  1  0  0  0  0
  9  6  2  0  0  0  0
 10  3  2  0  0  0  0
 11 12  1  0  0  0  0
 11  7  1  0  0  0  0
 11 13  1  0  0  0  0
 12 13  1  0  0  0  0
 14 15  1  0  0  0  0
 16 14  1  0  0  0  0
 16 21  2  0  0  0  0
 17 16  1  0  0  0  0
 18 17  2  0  0  0  0
 18 19  1  0  0  0  0
 19 20  2  0  0  0  0
 20 21  1  0  0  0  0
 22 19  1  0  0  0  0
 23 22  1  0  0  0  0
 23 24  1  0  0  0  0
 25 23  1  0  0  0  0
M  END
>  <MODEL>
6

>  <REMARK>
  Name = ZINC56173457
                            x       y       z     vdW  Elec       q    Type
                         _______ _______ _______ _____ _____    ______ ____

>  <TORSDO>
F 6

>  <minimizedAffinity>
-7.19178732950094

$$$$
ZINC56173457
 OpenBabel10211214123D

 25 26  0  0  1  0  0  0  0  0999 V2000
   51.3770   51.5640   21.3190 C   0  0  0  0  0  0  0  0  0  0  0  0
   50.7270   51.9630   19.9940 C   0  0  1  0  0  0  0  0  0  0  0  0
   51.2390   53.3150   19.5680 C   0  0  0  0  0  0  0  0  0  0  0  0
   51.5180   54.2530   20.4960 N   0  0  0  0  0  0  0  0  0  0  0  0
   51.3890   54.0560   21.4370 H   0  0  0  0  0  0  0  0  0  0  0  0
   51.9770   55.4620   20.1160 C   0  0  0  0  0  0  0  0  0  0  0  0
   52.2550   56.3990   21.0440 N   0  0  0  0  0  0  0  0  0  0  0  0
   52.1270   56.2030   21.9850 H   0  0  0  0  0  0  0  0  0  0  0  0
   52.1380   55.7070   18.9370 O   0  0  0  0  0  0  0  0  0  0  0  0
   51.4000   53.5600   18.3920 O   0  0  0  0  0  0  0  0  0  0  0  0
   52.7540   57.7120   20.6310 C   0  0  0  0  0  0  0  0  0  0  0  0
   54.2070   58.0540   20.9660 C   0  0  0  0  0  0  0  0  0  0  0  0
   53.0670   58.7270   21.7310 C   0  0  0  0  0  0  0  0  0  0  0  0
   51.0580   50.9710   18.9690 N   0  0  0  0  0  0  0  0  0  0  0  0
   51.9840   50.8280   18.7130 H   0  0  0  0  0  0  0  0  0  0  0  0
   50.0420   50.2290   18.3580 C   0  0  0  0  0  0  0  0  0  0  0  0
   49.7270   50.4480   17.0230 C   0  0  0  0  0  0  0  0  0  0  0  0
   48.7230   49.7160   16.4210 C   0  0  0  0  0  0  0  0  0  0  0  0
   48.0290   48.7610   17.1480 C   0  0  0  0  0  0  0  0  0  0  0  0
   48.3420   48.5420   18.4820 C   0  0  0  0  0  0  0  0  0  0  0  0
   49.3490   49.2690   19.0840 C   0  0  0  0  0  0  0  0  0  0  0  0
   47.0400   48.0400   16.5540 O   0  0  0  0  0  0  0  0  0  0  0  0
   45.8510   48.7450   16.1930 C   0  0  0  0  0  0  0  0  0  0  0  0
   44.8800   48.7460   17.3750 C   0  0  0  0  0  0  0  0  0  0  0  0
   45.1950   48.0570   14.9950 C   0  0  0  0  0  0  0  0  0  0  0  0
  2 14  1  6  0  0  0
  2  1  1  0  0  0  0
  3  2  1  0  0  0  0
  3  4  1  0  0  0  0
  4  5  1  0  0  0  0
  6  4  1  0  0  0  0
  6  7  1  0  0  0  0
  7  8  1  0  0  0  0
  9  6  2  0  0  0  0
 10  3  2  0  0  0  0
 11 12  1  0  0  0  0
 11  7  1  0  0  0  0
 11 13  1  0  0  0  0
 12 13  1  0  0  0  0
 15 14  1  0  0  0  0
 16 14  1  0  0  0  0
 16 21  2  0  0  0  0
 17 16  1  0  0  0  0
 18 17  2  0  0  0  0
 18 19  1  0  0  0  0
 19 20  2  0  0  0  0
 20 21  1  0  0  0  0
 22 19  1  0  0  0  0
 23 22  1  0  0  0  0
 23 24  1  0  0  0  0
 25 23  1  0  0  0  0
M  END
>  <MODEL>
7

>  <REMARK>
  Name = ZINC56173457
                            x       y       z     vdW  Elec       q    Type
                         _______ _______ _______ _____ _____    ______ ____

>  <TORSDO>
F 6

>  <minimizedAffinity>
-7.1243584724556817

$$$$
ZINC56173457
 OpenBabel10211214123D

 25 26  0  0  1  0  0  0  0  0999 V2000
   52.1740   51.0070   18.5170 C   0  0  0  0  0  0  0  0  0  0  0  0
   50.7760   51.6220   18.4360 C   0  0  1  0  0  0  0  0  0  0  0  0
   49.8210   50.6230   17.8350 C   0  0  0  0  0  0  0  0  0  0  0  0
   48.8520   50.0750   18.5960 N   0  0  0  0  0  0  0  0  0  0  0  0
   48.7700   50.3240   19.5300 H   0  0  0  0  0  0  0  0  0  0  0  0
   47.9970   49.1820   18.0590 C   0  0  0  0  0  0  0  0  0  0  0  0
   47.0290   48.6340   18.8200 N   0  0  0  0  0  0  0  0  0  0  0  0
   46.9460   48.8830   19.7540 H   0  0  0  0  0  0  0  0  0  0  0  0
   48.1000   48.8700   16.8890 O   0  0  0  0  0  0  0  0  0  0  0  0
   49.9230   50.3130   16.6680 O   0  0  0  0  0  0  0  0  0  0  0  0
   46.1000   47.6640   18.2360 C   0  0  0  0  0  0  0  0  0  0  0  0
   44.6900   48.1510   17.8940 C   0  0  0  0  0  0  0  0  0  0  0  0
   44.9100   47.2230   19.0900 C   0  0  0  0  0  0  0  0  0  0  0  0
   50.3220   51.9840   19.7810 N   0  0  0  0  0  0  0  0  0  0  0  0
   49.7670   51.3690   20.2870 H   0  0  0  0  0  0  0  0  0  0  0  0
   50.6890   53.2150   20.3360 C   0  0  0  0  0  0  0  0  0  0  0  0
   50.3630   54.3960   19.6830 C   0  0  0  0  0  0  0  0  0  0  0  0
   50.7260   55.6100   20.2310 C   0  0  0  0  0  0  0  0  0  0  0  0
   51.4150   55.6510   21.4340 C   0  0  0  0  0  0  0  0  0  0  0  0
   51.7410   54.4710   22.0870 C   0  0  0  0  0  0  0  0  0  0  0  0
   51.3750   53.2560   21.5430 C   0  0  0  0  0  0  0  0  0  0  0  0
   51.7710   56.8470   21.9730 O   0  0  0  0  0  0  0  0  0  0  0  0
   52.4330   57.7750   21.1120 C   0  0  0  0  0  0  0  0  0  0  0  0
   53.7470   57.1650   20.6190 C   0  0  0  0  0  0  0  0  0  0  0  0
   52.7260   59.0650   21.8810 C   0  0  0  0  0  0  0  0  0  0  0  0
  2  3  1  1  0  0  0
  2  1  1  0  0  0  0
  2 14  1  0  0  0  0
  3  4  1  0  0  0  0
  4  5  1  0  0  0  0
  6  4  1  0  0  0  0
  6  7  1  0  0  0  0
  7  8  1  0  0  0  0
  9  6  2  0  0  0  0
 10  3  2  0  0  0  0
 11  7  1  0  0  0  0
 11 13  1  0  0  0  0
 12 11  1  0  0  0  0
 12 13  1  0  0  0  0
 14 15  1  0  0  0  0
 14 16  1  0  0  0  0
 16 21  2  0  0  0  0
 17 18  2  0  0  0  0
 17 16  1  0  0  0  0
 18 19  1  0  0  0  0
 19 22  1  0  0  0  0
 19 20  2  0  0  0  0
 21 20  1  0  0  0  0
 23 25  1  0  0  0  0
 23 22  1  0  0  0  0
 24 23  1  0  0  0  0
M  END
>  <MODEL>
8

>  <REMARK>
  Name = ZINC56173457
                            x       y       z     vdW  Elec       q    Type
                         _______ _______ _______ _____ _____    ______ ____

>  <TORSDO>
F 6

>  <minimizedAffinity>
-7.0549023402488524

$$$$
ZINC56173457
 OpenBabel10211214123D

 25 26  0  0  1  0  0  0  0  0999 V2000
   50.8360   49.2080   20.3050 C   0  0  0  0  0  0  0  0  0  0  0  0
   50.0320   49.9710   19.2510 C   0  0  1  0  0  0  0  0  0  0  0  0
   50.7470   51.2520   18.9030 C   0  0  0  0  0  0  0  0  0  0  0  0
   50.8570   52.2330   19.8210 N   0  0  0  0  0  0  0  0  0  0  0  0
   50.4760   52.1150   20.7050 H   0  0  0  0  0  0  0  0  0  0  0  0
   51.4970   53.3780   19.5100 C   0  0  0  0  0  0  0  0  0  0  0  0
   51.6060   54.3590   20.4280 N   0  0  0  0  0  0  0  0  0  0  0  0
   51.2250   54.2410   21.3120 H   0  0  0  0  0  0  0  0  0  0  0  0
   51.9750   53.5260   18.4020 O   0  0  0  0  0  0  0  0  0  0  0  0
   51.2240   51.3990   17.7990 O   0  0  0  0  0  0  0  0  0  0  0  0
   52.3020   55.6030   20.0900 C   0  0  0  0  0  0  0  0  0  0  0  0
   52.5480   56.6050   21.2200 C   0  0  0  0  0  0  0  0  0  0  0  0
   51.4960   56.9020   20.1510 C   0  0  0  0  0  0  0  0  0  0  0  0
   49.8950   49.1460   18.0480 N   0  0  0  0  0  0  0  0  0  0  0  0
   50.6780   48.7250   17.6580 H   0  0  0  0  0  0  0  0  0  0  0  0
   48.6380   48.9660   17.4630 C   0  0  0  0  0  0  0  0  0  0  0  0
   48.5390   48.5950   16.1280 C   0  0  0  0  0  0  0  0  0  0  0  0
   47.2980   48.4180   15.5500 C   0  0  0  0  0  0  0  0  0  0  0  0
   46.1490   48.6090   16.3030 C   0  0  0  0  0  0  0  0  0  0  0  0
   46.2460   48.9790   17.6360 C   0  0  0  0  0  0  0  0  0  0  0  0
   47.4870   49.1520   18.2170 C   0  0  0  0  0  0  0  0  0  0  0  0
   44.9260   48.4340   15.7330 O   0  0  0  0  0  0  0  0  0  0  0  0
   44.7880   47.3480   14.8150 C   0  0  0  0  0  0  0  0  0  0  0  0
   43.7120   47.6880   13.7820 C   0  0  0  0  0  0  0  0  0  0  0  0
   44.3840   46.0850   15.5770 C   0  0  0  0  0  0  0  0  0  0  0  0
  2 14  1  6  0  0  0
  2  1  1  0  0  0  0
  3  2  1  0  0  0  0
  3  4  1  0  0  0  0
  4  5  1  0  0  0  0
  6  4  1  0  0  0  0
  6  7  1  0  0  0  0
  7  8  1  0  0  0  0
  9  6  2  0  0  0  0
 10  3  2  0  0  0  0
 11 13  1  0  0  0  0
 11  7  1  0  0  0  0
 11 12  1  0  0  0  0
 13 12  1  0  0  0  0
 15 14  1  0  0  0  0
 16 14  1  0  0  0  0
 16 21  2  0  0  0  0
 17 16  1  0  0  0  0
 18 17  2  0  0  0  0
 18 19  1  0  0  0  0
 19 20  2  0  0  0  0
 20 21  1  0  0  0  0
 22 19  1  0  0  0  0
 23 25  1  0  0  0  0
 23 22  1  0  0  0  0
 24 23  1  0  0  0  0
M  END
>  <MODEL>
9

>  <REMARK>
  Name = ZINC56173457
                            x       y       z     vdW  Elec       q    Type
                         _______ _______ _______ _____ _____    ______ ____

>  <TORSDO>
F 6

>  <minimizedAffinity>
-7.0477449301953499

$$$$
ZINC46601793
 OpenBabel10211214133D

 27 29  0  0  0  0  0  0  0  0999 V2000
   51.5670   52.3790   19.9300 C   0  0  0  0  0  0  0  0  0  0  0  0
   52.4080   51.4010   20.4450 C   0  0  0  0  0  0  0  0  0  0  0  0
   52.1690   50.0700   20.1640 C   0  0  0  0  0  0  0  0  0  0  0  0
   51.0940   49.7110   19.3720 C   0  0  0  0  0  0  0  0  0  0  0  0
   50.2550   50.6830   18.8580 C   0  0  0  0  0  0  0  0  0  0  0  0
   50.4850   52.0150   19.1400 C   0  0  0  0  0  0  0  0  0  0  0  0
   51.5730   54.2100   21.4490 C   0  0  0  0  0  0  0  0  0  0  0  0
   51.8070   53.7290   20.2120 N   0  0  0  0  0  0  0  0  0  0  0  0
   52.1420   54.3170   19.5180 H   0  0  0  0  0  0  0  0  0  0  0  0
   51.0750   53.4960   22.2930 O   0  0  0  0  0  0  0  0  0  0  0  0
   51.9290   55.6360   21.7810 C   0  0  0  0  0  0  0  0  0  0  0  0
   51.7600   57.8800   20.9470 C   0  0  0  0  0  0  0  0  0  0  0  0
   51.1410   56.5470   20.9400 N   0  0  0  0  0  0  0  0  0  0  0  0
   51.1150   56.1940   19.9950 H   0  0  0  0  0  0  0  0  0  0  0  0
   49.7720   56.6400   21.4660 C   0  0  0  0  0  0  0  0  0  0  0  0
   48.7130   57.2830   20.5690 C   0  0  0  0  0  0  0  0  0  0  0  0
   49.2360   58.0340   21.7950 C   0  0  0  0  0  0  0  0  0  0  0  0
   48.8870   50.2210   17.8480 S   0  0  0  0  0  0  0  0  0  0  0  0
   49.4180   49.4730   16.7620 O   0  0  0  0  0  0  0  0  0  0  0  0
   48.1080   51.3940   17.6580 O   0  0  0  0  0  0  0  0  0  0  0  0
   47.9570   49.1740   18.7330 N   0  0  0  0  0  0  0  0  0  0  0  0
   46.8360   48.7420   18.2550 C   0  0  0  0  0  0  0  0  0  0  0  0
   45.8950   47.7910   18.9630 C   0  0  0  0  0  0  0  0  0  0  0  0
   44.5620   47.9290   18.1940 C   0  0  0  0  0  0  0  0  0  0  0  0
   45.0380   48.4000   16.8030 C   0  0  0  0  0  0  0  0  0  0  0  0
   46.3190   49.0800   17.0350 N   0  0  0  0  0  0  0  0  0  0  0  0
   46.7420   49.6850   16.4060 H   0  0  0  0  0  0  0  0  0  0  0  0
  1  8  1  0  0  0  0
  1  2  2  0  0  0  0
  3  2  1  0  0  0  0
  4  3  2  0  0  0  0
  5  6  2  0  0  0  0
  5  4  1  0  0  0  0
  6  1  1  0  0  0  0
  7 11  1  0  0  0  0
  7 10  2  0  0  0  0
  8  7  1  0  0  0  0
  9  8  1  0  0  0  0
 13 12  1  0  0  0  0
 13 15  1  0  0  0  0
 13 11  1  0  0  0  0
 14 13  1  0  0  0  0
 15 17  1  0  0  0  0
 16 15  1  0  0  0  0
 16 17  1  0  0  0  0
 18 21  1  0  0  0  0
 18  5  1  0  0  0  0
 19 18  2  0  0  0  0
 20 18  2  0  0  0  0
 22 21  2  0  0  0  0
 22 23  1  0  0  0  0
 24 23  1  0  0  0  0
 25 26  1  0  0  0  0
 25 24  1  0  0  0  0
 26 22  1  0  0  0  0
 27 26  1  0  0  0  0
M  END
>  <MODEL>
1

>  <REMARK>
  Name = ZINC46601793
                            x       y       z     vdW  Elec       q    Type
                         _______ _______ _______ _____ _____    ______ ____

>  <TORSDO>
F 6

>  <minimizedAffinity>
-7.9514392709013082

$$$$
ZINC46601793
 OpenBabel10211214133D

 27 29  0  0  0  0  0  0  0  0999 V2000
   50.3550   50.3520   19.3250 C   0  0  0  0  0  0  0  0  0  0  0  0
   51.4540   49.5530   19.6140 C   0  0  0  0  0  0  0  0  0  0  0  0
   52.5600   50.1010   20.2330 C   0  0  0  0  0  0  0  0  0  0  0  0
   52.5750   51.4430   20.5660 C   0  0  0  0  0  0  0  0  0  0  0  0
   51.4810   52.2410   20.2810 C   0  0  0  0  0  0  0  0  0  0  0  0
   50.3740   51.7010   19.6560 C   0  0  0  0  0  0  0  0  0  0  0  0
   49.1360   49.8160   17.3540 C   0  0  0  0  0  0  0  0  0  0  0  0
   49.2330   49.8000   18.6980 N   0  0  0  0  0  0  0  0  0  0  0  0
   48.5240   49.4060   19.2310 H   0  0  0  0  0  0  0  0  0  0  0  0
   49.9790   50.3820   16.6920 O   0  0  0  0  0  0  0  0  0  0  0  0
   47.9790   49.1300   16.6740 C   0  0  0  0  0  0  0  0  0  0  0  0
   48.3790   46.7640   16.6860 C   0  0  0  0  0  0  0  0  0  0  0  0
   47.6840   47.8670   17.3650 N   0  0  0  0  0  0  0  0  0  0  0  0
   48.0010   47.9250   18.3210 H   0  0  0  0  0  0  0  0  0  0  0  0
   46.2360   47.6220   17.3410 C   0  0  0  0  0  0  0  0  0  0  0  0
   45.3160   48.7930   17.6920 C   0  0  0  0  0  0  0  0  0  0  0  0
   45.4950   47.6380   18.6800 C   0  0  0  0  0  0  0  0  0  0  0  0
   51.5040   53.9500   20.7070 S   0  0  0  0  0  0  0  0  0  0  0  0
   52.4640   54.5680   19.8600 O   0  0  0  0  0  0  0  0  0  0  0  0
   51.5860   54.0140   22.1250 O   0  0  0  0  0  0  0  0  0  0  0  0
   50.0300   54.5790   20.2910 N   0  0  0  0  0  0  0  0  0  0  0  0
   49.7250   55.7900   20.6250 C   0  0  0  0  0  0  0  0  0  0  0  0
   48.4140   56.4770   20.3110 C   0  0  0  0  0  0  0  0  0  0  0  0
   48.3840   57.6950   21.2610 C   0  0  0  0  0  0  0  0  0  0  0  0
   49.8860   57.9420   21.5190 C   0  0  0  0  0  0  0  0  0  0  0  0
   50.5380   56.6420   21.3210 N   0  0  0  0  0  0  0  0  0  0  0  0
   51.4260   56.4180   21.6400 H   0  0  0  0  0  0  0  0  0  0  0  0
  1  2  2  0  0  0  0
  1  6  1  0  0  0  0
  2  3  1  0  0  0  0
  3  4  2  0  0  0  0
  5  4  1  0  0  0  0
  5 18  1  0  0  0  0
  6  5  2  0  0  0  0
  7  8  1  0  0  0  0
  8  9  1  0  0  0  0
  8  1  1  0  0  0  0
 10  7  2  0  0  0  0
 11  7  1  0  0  0  0
 11 13  1  0  0  0  0
 12 13  1  0  0  0  0
 13 14  1  0  0  0  0
 15 13  1  0  0  0  0
 15 16  1  0  0  0  0
 15 17  1  0  0  0  0
 16 17  1  0  0  0  0
 18 20  2  0  0  0  0
 19 18  2  0  0  0  0
 21 22  2  0  0  0  0
 21 18  1  0  0  0  0
 22 26  1  0  0  0  0
 23 22  1  0  0  0  0
 23 24  1  0  0  0  0
 24 25  1  0  0  0  0
 26 25  1  0  0  0  0
 26 27  1  0  0  0  0
M  END
>  <MODEL>
2

>  <REMARK>
  Name = ZINC46601793
                            x       y       z     vdW  Elec       q    Type
                         _______ _______ _______ _____ _____    ______ ____

>  <TORSDO>
F 6

>  <minimizedAffinity>
-7.8977057490132632

$$$$
ZINC46601793
 OpenBabel10211214133D

 27 29  0  0  0  0  0  0  0  0999 V2000
   51.1060   52.5640   20.1170 C   0  0  0  0  0  0  0  0  0  0  0  0
   52.0270   51.6750   20.6560 C   0  0  0  0  0  0  0  0  0  0  0  0
   51.9640   50.3340   20.3280 C   0  0  0  0  0  0  0  0  0  0  0  0
   50.9860   49.8780   19.4650 C   0  0  0  0  0  0  0  0  0  0  0  0
   50.0670   50.7610   18.9260 C   0  0  0  0  0  0  0  0  0  0  0  0
   50.1210   52.1010   19.2550 C   0  0  0  0  0  0  0  0  0  0  0  0
   51.8740   54.7710   19.6740 C   0  0  0  0  0  0  0  0  0  0  0  0
   51.1690   53.9220   20.4470 N   0  0  0  0  0  0  0  0  0  0  0  0
   50.7040   54.2530   21.2310 H   0  0  0  0  0  0  0  0  0  0  0  0
   52.5230   54.3460   18.7420 O   0  0  0  0  0  0  0  0  0  0  0  0
   51.8570   56.2490   19.9680 C   0  0  0  0  0  0  0  0  0  0  0  0
   50.5160   57.1720   21.7310 C   0  0  0  0  0  0  0  0  0  0  0  0
   51.7620   56.4580   21.4190 N   0  0  0  0  0  0  0  0  0  0  0  0
   51.7640   55.5650   21.8880 H   0  0  0  0  0  0  0  0  0  0  0  0
   52.9100   57.2540   21.8760 C   0  0  0  0  0  0  0  0  0  0  0  0
   52.9080   58.7480   21.5460 C   0  0  0  0  0  0  0  0  0  0  0  0
   53.8580   57.8030   20.8080 C   0  0  0  0  0  0  0  0  0  0  0  0
   48.8230   50.1740   17.8260 S   0  0  0  0  0  0  0  0  0  0  0  0
   49.4880   49.4020   16.8350 O   0  0  0  0  0  0  0  0  0  0  0  0
   48.0080   51.2920   17.5010 O   0  0  0  0  0  0  0  0  0  0  0  0
   47.8670   49.1260   18.6810 N   0  0  0  0  0  0  0  0  0  0  0  0
   46.7650   48.6880   18.1660 C   0  0  0  0  0  0  0  0  0  0  0  0
   45.8050   47.7360   18.8440 C   0  0  0  0  0  0  0  0  0  0  0  0
   44.4980   47.8670   18.0300 C   0  0  0  0  0  0  0  0  0  0  0  0
   45.0180   48.3380   16.6550 C   0  0  0  0  0  0  0  0  0  0  0  0
   46.2880   49.0230   16.9290 N   0  0  0  0  0  0  0  0  0  0  0  0
   46.7300   49.6290   16.3140 H   0  0  0  0  0  0  0  0  0  0  0  0
  1  8  1  0  0  0  0
  1  2  2  0  0  0  0
  3  2  1  0  0  0  0
  4  3  2  0  0  0  0
  5  6  2  0  0  0  0
  5  4  1  0  0  0  0
  6  1  1  0  0  0  0
  7 11  1  0  0  0  0
  7  8  1  0  0  0  0
  8  9  1  0  0  0  0
 10  7  2  0  0  0  0
 11 13  1  0  0  0  0
 13 12  1  0  0  0  0
 13 15  1  0  0  0  0
 13 14  1  0  0  0  0
 16 15  1  0  0  0  0
 17 16  1  0  0  0  0
 17 15  1  0  0  0  0
 18 21  1  0  0  0  0
 18  5  1  0  0  0  0
 19 18  2  0  0  0  0
 20 18  2  0  0  0  0
 22 21  2  0  0  0  0
 22 23  1  0  0  0  0
 24 23  1  0  0  0  0
 25 26  1  0  0  0  0
 25 24  1  0  0  0  0
 26 22  1  0  0  0  0
 27 26  1  0  0  0  0
M  END
>  <MODEL>
3

>  <REMARK>
  Name = ZINC46601793
                            x       y       z     vdW  Elec       q    Type
                         _______ _______ _______ _____ _____    ______ ____

>  <TORSDO>
F 6

>  <minimizedAffinity>
-7.8559411983229417

$$$$
ZINC46601793
 OpenBabel10211214133D

 27 29  0  0  0  0  0  0  0  0999 V2000
   51.4640   52.4090   20.0040 C   0  0  0  0  0  0  0  0  0  0  0  0
   51.2160   52.0070   21.3100 C   0  0  0  0  0  0  0  0  0  0  0  0
   51.2830   52.9270   22.3390 C   0  0  0  0  0  0  0  0  0  0  0  0
   51.5970   54.2460   22.0690 C   0  0  0  0  0  0  0  0  0  0  0  0
   51.8440   54.6490   20.7690 C   0  0  0  0  0  0  0  0  0  0  0  0
   51.7840   53.7340   19.7370 C   0  0  0  0  0  0  0  0  0  0  0  0
   50.3310   51.4720   18.1340 C   0  0  0  0  0  0  0  0  0  0  0  0
   51.3960   51.4800   18.9600 N   0  0  0  0  0  0  0  0  0  0  0  0
   52.1150   50.8430   18.8300 H   0  0  0  0  0  0  0  0  0  0  0  0
   49.3940   52.2110   18.3460 O   0  0  0  0  0  0  0  0  0  0  0  0
   50.3050   50.5420   16.9480 C   0  0  0  0  0  0  0  0  0  0  0  0
   49.0800   48.8190   18.0830 C   0  0  0  0  0  0  0  0  0  0  0  0
   49.0570   49.7670   16.9610 N   0  0  0  0  0  0  0  0  0  0  0  0
   48.2730   50.3940   17.0660 H   0  0  0  0  0  0  0  0  0  0  0  0
   48.9260   49.0270   15.6980 C   0  0  0  0  0  0  0  0  0  0  0  0
   49.9700   49.2960   14.6120 C   0  0  0  0  0  0  0  0  0  0  0  0
   48.5430   49.8240   14.4490 C   0  0  0  0  0  0  0  0  0  0  0  0
   52.2420   56.3320   20.4310 S   0  0  0  0  0  0  0  0  0  0  0  0
   51.9760   56.5430   19.0510 O   0  0  0  0  0  0  0  0  0  0  0  0
   53.5200   56.5700   21.0060 O   0  0  0  0  0  0  0  0  0  0  0  0
   51.1640   57.2690   21.2700 N   0  0  0  0  0  0  0  0  0  0  0  0
   49.9050   57.2250   20.9800 C   0  0  0  0  0  0  0  0  0  0  0  0
   48.8250   58.0330   21.6650 C   0  0  0  0  0  0  0  0  0  0  0  0
   47.6180   57.9480   20.7030 C   0  0  0  0  0  0  0  0  0  0  0  0
   47.8950   56.6300   19.9500 C   0  0  0  0  0  0  0  0  0  0  0  0
   49.3510   56.4450   20.0030 N   0  0  0  0  0  0  0  0  0  0  0  0
   49.8510   55.8490   19.4240 H   0  0  0  0  0  0  0  0  0  0  0  0
  1  2  1  0  0  0  0
  2  3  2  0  0  0  0
  4  3  1  0  0  0  0
  5  4  2  0  0  0  0
  6  1  2  0  0  0  0
  6  5  1  0  0  0  0
  7 10  2  0  0  0  0
  7  8  1  0  0  0  0
  8  1  1  0  0  0  0
  9  8  1  0  0  0  0
 11 13  1  0  0  0  0
 11  7  1  0  0  0  0
 13 14  1  0  0  0  0
 13 12  1  0  0  0  0
 15 13  1  0  0  0  0
 16 15  1  0  0  0  0
 17 16  1  0  0  0  0
 17 15  1  0  0  0  0
 18  5  1  0  0  0  0
 18 20  2  0  0  0  0
 18 21  1  0  0  0  0
 19 18  2  0  0  0  0
 22 21  2  0  0  0  0
 22 23  1  0  0  0  0
 24 23  1  0  0  0  0
 25 26  1  0  0  0  0
 25 24  1  0  0  0  0
 26 22  1  0  0  0  0
 27 26  1  0  0  0  0
M  END
>  <MODEL>
4

>  <REMARK>
  Name = ZINC46601793
                            x       y       z     vdW  Elec       q    Type
                         _______ _______ _______ _____ _____    ______ ____

>  <TORSDO>
F 6

>  <minimizedAffinity>
-7.7954260592473679

$$$$
ZINC46601793
 OpenBabel10211214133D

 27 29  0  0  0  0  0  0  0  0999 V2000
   50.1570   49.9670   18.7960 C   0  0  0  0  0  0  0  0  0  0  0  0
   50.3310   49.1840   19.9300 C   0  0  0  0  0  0  0  0  0  0  0  0
   50.8290   49.7500   21.0870 C   0  0  0  0  0  0  0  0  0  0  0  0
   51.1550   51.0930   21.1170 C   0  0  0  0  0  0  0  0  0  0  0  0
   50.9830   51.8750   19.9890 C   0  0  0  0  0  0  0  0  0  0  0  0
   50.4910   51.3140   18.8270 C   0  0  0  0  0  0  0  0  0  0  0  0
   48.3340   49.1350   17.5130 C   0  0  0  0  0  0  0  0  0  0  0  0
   49.6520   49.3970   17.6220 N   0  0  0  0  0  0  0  0  0  0  0  0
   50.2490   49.1890   16.8870 H   0  0  0  0  0  0  0  0  0  0  0  0
   47.6000   49.3160   18.4620 O   0  0  0  0  0  0  0  0  0  0  0  0
   47.7740   48.6190   16.2130 C   0  0  0  0  0  0  0  0  0  0  0  0
   46.6520   46.5240   16.5430 C   0  0  0  0  0  0  0  0  0  0  0  0
   46.4740   47.9800   16.4600 N   0  0  0  0  0  0  0  0  0  0  0  0
   46.0900   48.3220   17.3280 H   0  0  0  0  0  0  0  0  0  0  0  0
   45.5540   48.2980   15.3590 C   0  0  0  0  0  0  0  0  0  0  0  0
   45.0990   47.1440   14.4640 C   0  0  0  0  0  0  0  0  0  0  0  0
   46.0930   48.1790   13.9320 C   0  0  0  0  0  0  0  0  0  0  0  0
   51.3990   53.5870   20.0330 S   0  0  0  0  0  0  0  0  0  0  0  0
   51.9100   53.9140   18.7470 O   0  0  0  0  0  0  0  0  0  0  0  0
   52.1450   53.7930   21.2240 O   0  0  0  0  0  0  0  0  0  0  0  0
   49.9840   54.4310   20.2080 N   0  0  0  0  0  0  0  0  0  0  0  0
   50.0120   55.6750   20.5590 C   0  0  0  0  0  0  0  0  0  0  0  0
   48.7950   56.5510   20.7590 C   0  0  0  0  0  0  0  0  0  0  0  0
   49.3230   57.7610   21.5610 C   0  0  0  0  0  0  0  0  0  0  0  0
   50.8180   57.7790   21.1750 C   0  0  0  0  0  0  0  0  0  0  0  0
   51.1470   56.3950   20.8130 N   0  0  0  0  0  0  0  0  0  0  0  0
   52.0480   56.0400   20.7590 H   0  0  0  0  0  0  0  0  0  0  0  0
  1  6  2  0  0  0  0
  1  2  1  0  0  0  0
  2  3  2  0  0  0  0
  3  4  1  0  0  0  0
  5 18  1  0  0  0  0
  5  4  2  0  0  0  0
  6  5  1  0  0  0  0
  7  8  1  0  0  0  0
  7 10  2  0  0  0  0
  8  1  1  0  0  0  0
  9  8  1  0  0  0  0
 11 13  1  0  0  0  0
 11  7  1  0  0  0  0
 13 12  1  0  0  0  0
 13 14  1  0  0  0  0
 15 13  1  0  0  0  0
 16 15  1  0  0  0  0
 17 16  1  0  0  0  0
 17 15  1  0  0  0  0
 18 21  1  0  0  0  0
 18 20  2  0  0  0  0
 19 18  2  0  0  0  0
 21 22  2  0  0  0  0
 22 23  1  0  0  0  0
 22 26  1  0  0  0  0
 23 24  1  0  0  0  0
 25 24  1  0  0  0  0
 26 25  1  0  0  0  0
 27 26  1  0  0  0  0
M  END
>  <MODEL>
5

>  <REMARK>
  Name = ZINC46601793
                            x       y       z     vdW  Elec       q    Type
                         _______ _______ _______ _____ _____    ______ ____

>  <TORSDO>
F 6

>  <minimizedAffinity>
-7.7791056188480798

$$$$
ZINC46601793
 OpenBabel10211214133D

 27 29  0  0  0  0  0  0  0  0999 V2000
   48.0300   57.9620   20.3210 C   0  0  0  0  0  0  0  0  0  0  0  0
   48.7000   58.3700   21.4680 C   0  0  0  0  0  0  0  0  0  0  0  0
   49.7340   57.6040   21.9700 C   0  0  0  0  0  0  0  0  0  0  0  0
   50.1020   56.4330   21.3340 C   0  0  0  0  0  0  0  0  0  0  0  0
   49.4370   56.0250   20.1910 C   0  0  0  0  0  0  0  0  0  0  0  0
   48.3980   56.7830   19.6870 C   0  0  0  0  0  0  0  0  0  0  0  0
   47.2110   59.5860   18.7880 C   0  0  0  0  0  0  0  0  0  0  0  0
   46.9830   58.7360   19.8090 N   0  0  0  0  0  0  0  0  0  0  0  0
   46.0940   58.6620   20.1890 H   0  0  0  0  0  0  0  0  0  0  0  0
   48.3370   59.7410   18.3680 O   0  0  0  0  0  0  0  0  0  0  0  0
   46.0640   60.3420   18.1680 C   0  0  0  0  0  0  0  0  0  0  0  0
   43.8860   61.1740   18.7360 C   0  0  0  0  0  0  0  0  0  0  0  0
   45.2550   60.9590   19.2270 N   0  0  0  0  0  0  0  0  0  0  0  0
   45.2310   60.3490   20.0310 H   0  0  0  0  0  0  0  0  0  0  0  0
   45.8460   62.2490   19.6080 C   0  0  0  0  0  0  0  0  0  0  0  0
   44.9370   63.4790   19.5750 C   0  0  0  0  0  0  0  0  0  0  0  0
   46.0190   63.2980   18.5080 C   0  0  0  0  0  0  0  0  0  0  0  0
   49.9100   54.5320   19.3830 S   0  0  0  0  0  0  0  0  0  0  0  0
   49.9820   53.5310   20.3890 O   0  0  0  0  0  0  0  0  0  0  0  0
   51.0140   54.8550   18.5490 O   0  0  0  0  0  0  0  0  0  0  0  0
   48.6660   54.1040   18.3770 N   0  0  0  0  0  0  0  0  0  0  0  0
   48.7430   53.0180   17.6790 C   0  0  0  0  0  0  0  0  0  0  0  0
   47.6820   52.5210   16.7220 C   0  0  0  0  0  0  0  0  0  0  0  0
   48.4110   51.4690   15.8570 C   0  0  0  0  0  0  0  0  0  0  0  0
   49.5520   51.0150   16.7920 C   0  0  0  0  0  0  0  0  0  0  0  0
   49.7990   52.1500   17.6910 N   0  0  0  0  0  0  0  0  0  0  0  0
   50.6010   52.2650   18.2220 H   0  0  0  0  0  0  0  0  0  0  0  0
  1  2  2  0  0  0  0
  2  3  1  0  0  0  0
  4  3  2  0  0  0  0
  5  4  1  0  0  0  0
  6  5  2  0  0  0  0
  6  1  1  0  0  0  0
  7  8  1  0  0  0  0
  8  9  1  0  0  0  0
  8  1  1  0  0  0  0
 10  7  2  0  0  0  0
 11  7  1  0  0  0  0
 11 13  1  0  0  0  0
 12 13  1  0  0  0  0
 13 15  1  0  0  0  0
 13 14  1  0  0  0  0
 16 15  1  0  0  0  0
 17 16  1  0  0  0  0
 17 15  1  0  0  0  0
 18  5  1  0  0  0  0
 18 19  2  0  0  0  0
 20 18  2  0  0  0  0
 21 18  1  0  0  0  0
 22 26  1  0  0  0  0
 22 21  2  0  0  0  0
 23 22  1  0  0  0  0
 24 23  1  0  0  0  0
 24 25  1  0  0  0  0
 25 26  1  0  0  0  0
 26 27  1  0  0  0  0
M  END
>  <MODEL>
6

>  <REMARK>
  Name = ZINC46601793
                            x       y       z     vdW  Elec       q    Type
                         _______ _______ _______ _____ _____    ______ ____

>  <TORSDO>
F 6

>  <minimizedAffinity>
-7.4095592065194031

$$$$
ZINC46601793
 OpenBabel10211214133D

 27 29  0  0  0  0  0  0  0  0999 V2000
   50.9370   54.4280   19.7480 C   0  0  0  0  0  0  0  0  0  0  0  0
   50.9340   54.6550   21.1190 C   0  0  0  0  0  0  0  0  0  0  0  0
   51.3470   53.6580   21.9820 C   0  0  0  0  0  0  0  0  0  0  0  0
   51.7620   52.4380   21.4830 C   0  0  0  0  0  0  0  0  0  0  0  0
   51.7670   52.2100   20.1190 C   0  0  0  0  0  0  0  0  0  0  0  0
   51.3490   53.2000   19.2510 C   0  0  0  0  0  0  0  0  0  0  0  0
   49.2510   55.4510   18.4170 C   0  0  0  0  0  0  0  0  0  0  0  0
   50.5200   55.4360   18.8710 N   0  0  0  0  0  0  0  0  0  0  0  0
   51.1440   56.1230   18.5910 H   0  0  0  0  0  0  0  0  0  0  0  0
   48.4950   54.5460   18.7000 O   0  0  0  0  0  0  0  0  0  0  0  0
   48.7730   56.5920   17.5570 C   0  0  0  0  0  0  0  0  0  0  0  0
   47.1700   58.3700   17.3940 C   0  0  0  0  0  0  0  0  0  0  0  0
   47.7660   57.3700   18.2910 N   0  0  0  0  0  0  0  0  0  0  0  0
   47.0450   56.7520   18.6310 H   0  0  0  0  0  0  0  0  0  0  0  0
   48.4050   58.0500   19.4260 C   0  0  0  0  0  0  0  0  0  0  0  0
   48.0170   57.5900   20.8330 C   0  0  0  0  0  0  0  0  0  0  0  0
   47.5210   58.9380   20.3050 C   0  0  0  0  0  0  0  0  0  0  0  0
   52.2980   50.6530   19.4880 S   0  0  0  0  0  0  0  0  0  0  0  0
   53.2880   50.1670   20.3850 O   0  0  0  0  0  0  0  0  0  0  0  0
   52.5510   50.8410   18.1020 O   0  0  0  0  0  0  0  0  0  0  0  0
   51.0110   49.6150   19.5970 N   0  0  0  0  0  0  0  0  0  0  0  0
   50.0130   49.7340   18.7850 C   0  0  0  0  0  0  0  0  0  0  0  0
   48.7800   48.8570   18.7850 C   0  0  0  0  0  0  0  0  0  0  0  0
   47.7470   49.6500   17.9520 C   0  0  0  0  0  0  0  0  0  0  0  0
   48.6540   50.5200   17.0550 C   0  0  0  0  0  0  0  0  0  0  0  0
   49.9100   50.6770   17.7990 N   0  0  0  0  0  0  0  0  0  0  0  0
   50.5770   51.3560   17.6150 H   0  0  0  0  0  0  0  0  0  0  0  0
  1  2  1  0  0  0  0
  2  3  2  0  0  0  0
  4  3  1  0  0  0  0
  5  4  2  0  0  0  0
  6  1  2  0  0  0  0
  6  5  1  0  0  0  0
  7 10  2  0  0  0  0
  7  8  1  0  0  0  0
  8  1  1  0  0  0  0
  9  8  1  0  0  0  0
 11 13  1  0  0  0  0
 11  7  1  0  0  0  0
 12 13  1  0  0  0  0
 13 14  1  0  0  0  0
 13 15  1  0  0  0  0
 15 17  1  0  0  0  0
 15 16  1  0  0  0  0
 17 16  1  0  0  0  0
 18 21  1  0  0  0  0
 18  5  1  0  0  0  0
 18 19  2  0  0  0  0
 20 18  2  0  0  0  0
 22 23  1  0  0  0  0
 22 21  2  0  0  0  0
 24 23  1  0  0  0  0
 25 26  1  0  0  0  0
 25 24  1  0  0  0  0
 26 22  1  0  0  0  0
 27 26  1  0  0  0  0
M  END
>  <MODEL>
7

>  <REMARK>
  Name = ZINC46601793
                            x       y       z     vdW  Elec       q    Type
                         _______ _______ _______ _____ _____    ______ ____

>  <TORSDO>
F 6

>  <minimizedAffinity>
-7.2440320385369255

$$$$
ZINC46601793
 OpenBabel10211214133D

 27 29  0  0  0  0  0  0  0  0999 V2000
   50.9480   53.9360   21.2980 C   0  0  0  0  0  0  0  0  0  0  0  0
   51.6660   54.5860   22.2920 C   0  0  0  0  0  0  0  0  0  0  0  0
   51.4680   55.9350   22.5140 C   0  0  0  0  0  0  0  0  0  0  0  0
   50.5560   56.6370   21.7490 C   0  0  0  0  0  0  0  0  0  0  0  0
   49.8380   55.9910   20.7580 C   0  0  0  0  0  0  0  0  0  0  0  0
   50.0360   54.6440   20.5260 C   0  0  0  0  0  0  0  0  0  0  0  0
   52.1280   52.1590   20.2440 C   0  0  0  0  0  0  0  0  0  0  0  0
   51.1460   52.5690   21.0710 N   0  0  0  0  0  0  0  0  0  0  0  0
   50.5760   51.9170   21.5080 H   0  0  0  0  0  0  0  0  0  0  0  0
   52.7850   52.9740   19.6320 O   0  0  0  0  0  0  0  0  0  0  0  0
   52.4090   50.6880   20.0800 C   0  0  0  0  0  0  0  0  0  0  0  0
   51.9630   50.8820   17.7300 C   0  0  0  0  0  0  0  0  0  0  0  0
   51.6150   50.1600   18.9620 N   0  0  0  0  0  0  0  0  0  0  0  0
   51.8130   49.1780   18.8430 H   0  0  0  0  0  0  0  0  0  0  0  0
   50.1850   50.3400   19.2480 C   0  0  0  0  0  0  0  0  0  0  0  0
   49.2260   49.2520   18.7610 C   0  0  0  0  0  0  0  0  0  0  0  0
   49.2570   50.6140   18.0620 C   0  0  0  0  0  0  0  0  0  0  0  0
   48.6760   56.8900   19.7850 S   0  0  0  0  0  0  0  0  0  0  0  0
   49.1360   58.2350   19.7430 O   0  0  0  0  0  0  0  0  0  0  0  0
   47.3860   56.5400   20.2670 O   0  0  0  0  0  0  0  0  0  0  0  0
   48.7770   56.3070   18.2380 N   0  0  0  0  0  0  0  0  0  0  0  0
   48.0820   56.8520   17.2940 C   0  0  0  0  0  0  0  0  0  0  0  0
   48.0800   56.4110   15.8470 C   0  0  0  0  0  0  0  0  0  0  0  0
   46.8160   57.0680   15.2490 C   0  0  0  0  0  0  0  0  0  0  0  0
   46.6130   58.2840   16.1770 C   0  0  0  0  0  0  0  0  0  0  0  0
   47.2310   57.9110   17.4560 N   0  0  0  0  0  0  0  0  0  0  0  0
   47.0610   58.3560   18.3000 H   0  0  0  0  0  0  0  0  0  0  0  0
  1  2  2  0  0  0  0
  2  3  1  0  0  0  0
  4  3  2  0  0  0  0
  5  4  1  0  0  0  0
  6  5  2  0  0  0  0
  6  1  1  0  0  0  0
  7  8  1  0  0  0  0
  8  1  1  0  0  0  0
  8  9  1  0  0  0  0
 10  7  2  0  0  0  0
 11  7  1  0  0  0  0
 12 13  1  0  0  0  0
 13 15  1  0  0  0  0
 13 11  1  0  0  0  0
 14 13  1  0  0  0  0
 16 15  1  0  0  0  0
 17 16  1  0  0  0  0
 17 15  1  0  0  0  0
 18 20  2  0  0  0  0
 18  5  1  0  0  0  0
 19 18  2  0  0  0  0
 21 18  1  0  0  0  0
 22 26  1  0  0  0  0
 22 21  2  0  0  0  0
 23 22  1  0  0  0  0
 24 23  1  0  0  0  0
 24 25  1  0  0  0  0
 25 26  1  0  0  0  0
 26 27  1  0  0  0  0
M  END
>  <MODEL>
8

>  <REMARK>
  Name = ZINC46601793
                            x       y       z     vdW  Elec       q    Type
                         _______ _______ _______ _____ _____    ______ ____

>  <TORSDO>
F 6

>  <minimizedAffinity>
-7.1450100034613451

$$$$
ZINC46601793
 OpenBabel10211214133D

 27 29  0  0  0  0  0  0  0  0999 V2000
   49.1650   49.4880   16.5460 C   0  0  0  0  0  0  0  0  0  0  0  0
   49.3680   50.0370   15.2870 C   0  0  0  0  0  0  0  0  0  0  0  0
   48.4630   49.7880   14.2730 C   0  0  0  0  0  0  0  0  0  0  0  0
   47.3580   48.9920   14.5100 C   0  0  0  0  0  0  0  0  0  0  0  0
   47.1540   48.4430   15.7630 C   0  0  0  0  0  0  0  0  0  0  0  0
   48.0570   48.6840   16.7800 C   0  0  0  0  0  0  0  0  0  0  0  0
   49.9430   50.8390   18.3420 C   0  0  0  0  0  0  0  0  0  0  0  0
   50.0790   49.7390   17.5750 N   0  0  0  0  0  0  0  0  0  0  0  0
   50.8090   49.1220   17.7370 H   0  0  0  0  0  0  0  0  0  0  0  0
   49.0810   51.6530   18.0880 O   0  0  0  0  0  0  0  0  0  0  0  0
   50.8630   51.0570   19.5160 C   0  0  0  0  0  0  0  0  0  0  0  0
   52.5130   52.4630   18.4860 C   0  0  0  0  0  0  0  0  0  0  0  0
   51.4130   52.4180   19.4600 N   0  0  0  0  0  0  0  0  0  0  0  0
   50.6900   53.0620   19.1800 H   0  0  0  0  0  0  0  0  0  0  0  0
   51.9190   52.7970   20.7870 C   0  0  0  0  0  0  0  0  0  0  0  0
   50.9710   52.6350   21.9760 C   0  0  0  0  0  0  0  0  0  0  0  0
   51.3060   54.0320   21.4500 C   0  0  0  0  0  0  0  0  0  0  0  0
   45.7430   47.4300   16.0610 S   0  0  0  0  0  0  0  0  0  0  0  0
   44.6270   48.3050   16.1570 O   0  0  0  0  0  0  0  0  0  0  0  0
   46.1000   46.5330   17.1040 O   0  0  0  0  0  0  0  0  0  0  0  0
   45.5070   46.5090   14.7050 N   0  0  0  0  0  0  0  0  0  0  0  0
   44.7240   45.4810   14.7490 C   0  0  0  0  0  0  0  0  0  0  0  0
   44.4300   44.5580   13.5870 C   0  0  0  0  0  0  0  0  0  0  0  0
   43.8170   43.3000   14.2430 C   0  0  0  0  0  0  0  0  0  0  0  0
   43.2370   43.8690   15.5550 C   0  0  0  0  0  0  0  0  0  0  0  0
   44.0420   45.0600   15.8570 N   0  0  0  0  0  0  0  0  0  0  0  0
   44.0820   45.4900   16.7260 H   0  0  0  0  0  0  0  0  0  0  0  0
  1  6  1  0  0  0  0
  1  8  1  0  0  0  0
  2  1  2  0  0  0  0
  3  4  2  0  0  0  0
  3  2  1  0  0  0  0
  4  5  1  0  0  0  0
  5 18  1  0  0  0  0
  5  6  2  0  0  0  0
  7 11  1  0  0  0  0
  8  9  1  0  0  0  0
  8  7  1  0  0  0  0
 10  7  2  0  0  0  0
 12 13  1  0  0  0  0
 13 11  1  0  0  0  0
 13 15  1  0  0  0  0
 14 13  1  0  0  0  0
 15 17  1  0  0  0  0
 15 16  1  0  0  0  0
 17 16  1  0  0  0  0
 18 19  2  0  0  0  0
 18 20  2  0  0  0  0
 21 22  2  0  0  0  0
 21 18  1  0  0  0  0
 22 26  1  0  0  0  0
 23 24  1  0  0  0  0
 23 22  1  0  0  0  0
 24 25  1  0  0  0  0
 25 26  1  0  0  0  0
 26 27  1  0  0  0  0
M  END
>  <MODEL>
9

>  <REMARK>
  Name = ZINC46601793
                            x       y       z     vdW  Elec       q    Type
                         _______ _______ _______ _____ _____    ______ ____

>  <TORSDO>
F 6

>  <minimizedAffinity>
-7.0291210858808464

$$$$
ZINC67271843
 OpenBabel10211214153D

 28 30  0  0  1  0  0  0  0  0999 V2000
   51.1250   50.8470   18.2240 N   0  0  0  0  0  0  0  0  0  0  0  0
   51.3890   51.7160   17.8860 H   0  0  0  0  0  0  0  0  0  0  0  0
   51.6370   50.3900   19.3840 C   0  0  0  0  0  0  0  0  0  0  0  0
   51.3050   49.3020   19.8070 O   0  0  0  0  0  0  0  0  0  0  0  0
   50.1670   50.0290   17.4750 C   0  0  0  0  0  0  0  0  0  0  0  0
   48.9120   50.8530   17.1840 C   0  0  2  0  0  0  0  0  0  0  0  0
   49.0750   52.2560   17.7730 C   0  0  0  0  0  0  0  0  0  0  0  0
   44.6030   47.4680   18.7640 C   0  0  0  0  0  0  0  0  0  0  0  0
   45.8270   48.0440   18.0490 C   0  0  1  0  0  0  0  0  0  0  0  0
   45.4640   49.3890   17.4130 C   0  0  0  0  0  0  0  0  0  0  0  0
   46.7120   49.9960   16.7690 C   0  0  0  0  0  0  0  0  0  0  0  0
   47.7450   50.2000   17.7920 N   0  0  0  0  0  0  0  0  0  0  0  0
   47.3780   50.7850   18.5260 H   0  0  0  0  0  0  0  0  0  0  0  0
   48.1500   48.9060   18.3550 C   0  0  0  0  0  0  0  0  0  0  0  0
   46.9570   48.2570   19.0600 C   0  0  0  0  0  0  0  0  0  0  0  0
   52.6220   51.2300   20.1560 C   0  0  0  0  0  0  0  0  0  0  0  0
   52.1700   52.6240   20.1690 N   0  0  0  0  0  0  0  0  0  0  0  0
   51.3810   53.1550   21.1250 C   0  0  0  0  0  0  0  0  0  0  0  0
   51.1800   54.6040   20.7310 C   0  0  1  0  0  0  0  0  0  0  0  0
   51.7370   55.5380   21.8070 C   0  0  0  0  0  0  0  0  0  0  0  0
   51.9490   54.7340   19.4820 N   0  0  0  0  0  0  0  0  0  0  0  0
   52.0480   55.5330   18.9420 H   0  0  0  0  0  0  0  0  0  0  0  0
   50.9280   52.5900   22.0980 O   0  0  0  0  0  0  0  0  0  0  0  0
   52.4950   53.5290   19.2390 C   0  0  0  0  0  0  0  0  0  0  0  0
   53.2010   53.2870   18.2800 O   0  0  0  0  0  0  0  0  0  0  0  0
   49.6970   54.8920   20.4820 C   0  0  0  0  0  0  0  0  0  0  0  0
   49.3370   55.7210   19.2470 C   0  0  0  0  0  0  0  0  0  0  0  0
   49.2220   56.3380   20.6430 C   0  0  0  0  0  0  0  0  0  0  0  0
  1  3  1  0  0  0  0
  2  1  1  0  0  0  0
  3  4  2  0  0  0  0
  3 16  1  0  0  0  0
  5  1  1  0  0  0  0
  6  5  1  1  0  0  0
  6  7  1  0  0  0  0
  6 12  1  0  0  0  0
  9  8  1  1  0  0  0
  9 15  1  0  0  0  0
 10  9  1  0  0  0  0
 11 10  1  0  0  0  0
 11 12  1  0  0  0  0
 12 14  1  0  0  0  0
 12 13  1  0  0  0  0
 14 15  1  0  0  0  0
 16 17  1  0  0  0  0
 17 18  1  0  0  0  0
 18 23  2  0  0  0  0
 19 26  1  6  0  0  0
 19 18  1  0  0  0  0
 19 20  1  0  0  0  0
 21 19  1  0  0  0  0
 22 21  1  0  0  0  0
 24 21  1  0  0  0  0
 24 17  1  0  0  0  0
 25 24  2  0  0  0  0
 26 28  1  0  0  0  0
 27 26  1  0  0  0  0
 27 28  1  0  0  0  0
M  END
>  <MODEL>
1

>  <REMARK>
  Name = ZINC67271843
                            x       y       z     vdW  Elec       q    Type
                         _______ _______ _______ _____ _____    ______ ____

>  <TORSDO>
F 6

>  <minimizedAffinity>
-8.5030750570359377

$$$$
ZINC67271843
 OpenBabel10211214153D

 28 30  0  0  1  0  0  0  0  0999 V2000
   51.0800   51.5420   17.6410 N   0  0  0  0  0  0  0  0  0  0  0  0
   51.0710   52.4710   17.3650 H   0  0  0  0  0  0  0  0  0  0  0  0
   51.9020   51.1400   18.6310 C   0  0  0  0  0  0  0  0  0  0  0  0
   51.9120   49.9770   18.9760 O   0  0  0  0  0  0  0  0  0  0  0  0
   50.1980   50.5740   16.9840 C   0  0  0  0  0  0  0  0  0  0  0  0
   48.8140   51.1960   16.7880 C   0  0  2  0  0  0  0  0  0  0  0  0
   48.8360   52.6490   17.2660 C   0  0  0  0  0  0  0  0  0  0  0  0
   45.2180   47.3940   19.0550 C   0  0  0  0  0  0  0  0  0  0  0  0
   46.2650   48.0730   18.1700 C   0  0  1  0  0  0  0  0  0  0  0  0
   45.6510   49.3070   17.5030 C   0  0  0  0  0  0  0  0  0  0  0  0
   46.7250   50.0250   16.6830 C   0  0  0  0  0  0  0  0  0  0  0  0
   47.8230   50.4400   17.5650 N   0  0  0  0  0  0  0  0  0  0  0  0
   47.4580   51.0240   18.3020 H   0  0  0  0  0  0  0  0  0  0  0  0
   48.4640   49.2570   18.1530 C   0  0  0  0  0  0  0  0  0  0  0  0
   47.4560   48.5090   19.0290 C   0  0  0  0  0  0  0  0  0  0  0  0
   52.8090   52.1360   19.3070 C   0  0  0  0  0  0  0  0  0  0  0  0
   52.0020   53.1010   20.0590 N   0  0  0  0  0  0  0  0  0  0  0  0
   51.5270   54.2530   19.5450 C   0  0  0  0  0  0  0  0  0  0  0  0
   50.7590   54.9170   20.6700 C   0  0  1  0  0  0  0  0  0  0  0  0
   49.2860   55.0820   20.2930 C   0  0  0  0  0  0  0  0  0  0  0  0
   50.9060   53.9750   21.7930 N   0  0  0  0  0  0  0  0  0  0  0  0
   50.5400   54.0750   22.6850 H   0  0  0  0  0  0  0  0  0  0  0  0
   51.6800   54.6700   18.4170 O   0  0  0  0  0  0  0  0  0  0  0  0
   51.6410   52.9450   21.3370 C   0  0  0  0  0  0  0  0  0  0  0  0
   51.9480   51.9810   22.0130 O   0  0  0  0  0  0  0  0  0  0  0  0
   51.3820   56.2710   21.0200 C   0  0  0  0  0  0  0  0  0  0  0  0
   51.7780   56.5110   22.4780 C   0  0  0  0  0  0  0  0  0  0  0  0
   50.5580   57.2230   21.8900 C   0  0  0  0  0  0  0  0  0  0  0  0
  1  3  1  0  0  0  0
  2  1  1  0  0  0  0
  3  4  2  0  0  0  0
  3 16  1  0  0  0  0
  5  1  1  0  0  0  0
  6  5  1  1  0  0  0
  6  7  1  0  0  0  0
  6 12  1  0  0  0  0
  9 15  1  0  0  0  0
  9  8  1  1  0  0  0
 10  9  1  0  0  0  0
 11 10  1  0  0  0  0
 11 12  1  0  0  0  0
 12 14  1  0  0  0  0
 12 13  1  0  0  0  0
 14 15  1  0  0  0  0
 16 17  1  0  0  0  0
 17 24  1  0  0  0  0
 18 17  1  0  0  0  0
 18 19  1  0  0  0  0
 19 20  1  6  0  0  0
 19 26  1  0  0  0  0
 19 21  1  0  0  0  0
 21 22  1  0  0  0  0
 23 18  2  0  0  0  0
 24 21  1  0  0  0  0
 24 25  2  0  0  0  0
 26 28  1  0  0  0  0
 26 27  1  0  0  0  0
 28 27  1  0  0  0  0
M  END
>  <MODEL>
2

>  <REMARK>
  Name = ZINC67271843
                            x       y       z     vdW  Elec       q    Type
                         _______ _______ _______ _____ _____    ______ ____

>  <TORSDO>
F 6

>  <minimizedAffinity>
-8.4680822094347317

$$$$
ZINC67271843
 OpenBabel10211214153D

 28 30  0  0  1  0  0  0  0  0999 V2000
   52.1260   52.8810   19.4120 N   0  0  0  0  0  0  0  0  0  0  0  0
   51.5830   52.4380   20.0820 H   0  0  0  0  0  0  0  0  0  0  0  0
   52.6310   52.1770   18.3800 C   0  0  0  0  0  0  0  0  0  0  0  0
   53.3110   52.7320   17.5420 O   0  0  0  0  0  0  0  0  0  0  0  0
   52.3970   54.3170   19.5210 C   0  0  0  0  0  0  0  0  0  0  0  0
   51.8300   54.8440   20.8410 C   0  0  2  0  0  0  0  0  0  0  0  0
   51.1560   53.6990   21.6000 C   0  0  0  0  0  0  0  0  0  0  0  0
   47.3500   58.3620   20.5630 C   0  0  0  0  0  0  0  0  0  0  0  0
   48.2900   57.2150   20.9380 C   0  0  1  0  0  0  0  0  0  0  0  0
   48.6040   56.3810   19.6930 C   0  0  0  0  0  0  0  0  0  0  0  0
   49.6070   55.2850   20.0590 C   0  0  0  0  0  0  0  0  0  0  0  0
   50.8430   55.8960   20.5640 N   0  0  0  0  0  0  0  0  0  0  0  0
   51.2120   56.5270   19.8690 H   0  0  0  0  0  0  0  0  0  0  0  0
   50.5630   56.6390   21.7990 C   0  0  0  0  0  0  0  0  0  0  0  0
   49.5960   57.7870   21.4990 C   0  0  0  0  0  0  0  0  0  0  0  0
   52.3530   50.7000   18.2680 C   0  0  0  0  0  0  0  0  0  0  0  0
   50.9350   50.4910   17.9640 N   0  0  0  0  0  0  0  0  0  0  0  0
   50.4340   50.4080   16.7160 C   0  0  0  0  0  0  0  0  0  0  0  0
   48.9430   50.1900   16.8870 C   0  0  1  0  0  0  0  0  0  0  0  0
   48.5210   48.8520   16.2770 C   0  0  0  0  0  0  0  0  0  0  0  0
   48.7610   50.1740   18.3480 N   0  0  0  0  0  0  0  0  0  0  0  0
   47.9270   50.0550   18.8280 H   0  0  0  0  0  0  0  0  0  0  0  0
   51.0470   50.4900   15.6720 O   0  0  0  0  0  0  0  0  0  0  0  0
   49.9800   50.3520   18.8900 C   0  0  0  0  0  0  0  0  0  0  0  0
   50.1900   50.3860   20.0870 O   0  0  0  0  0  0  0  0  0  0  0  0
   48.1560   51.3420   16.2590 C   0  0  0  0  0  0  0  0  0  0  0  0
   48.4490   52.7560   16.7630 C   0  0  0  0  0  0  0  0  0  0  0  0
   47.1370   52.0660   17.1430 C   0  0  0  0  0  0  0  0  0  0  0  0
  1  5  1  0  0  0  0
  1  2  1  0  0  0  0
  3  1  1  0  0  0  0
  4  3  2  0  0  0  0
  6  5  1  6  0  0  0
  6  7  1  0  0  0  0
  9  8  1  6  0  0  0
  9 15  1  0  0  0  0
 10 11  1  0  0  0  0
 10  9  1  0  0  0  0
 11 12  1  0  0  0  0
 12  6  1  0  0  0  0
 12 14  1  0  0  0  0
 13 12  1  0  0  0  0
 15 14  1  0  0  0  0
 16  3  1  0  0  0  0
 17 16  1  0  0  0  0
 17 24  1  0  0  0  0
 18 19  1  0  0  0  0
 18 17  1  0  0  0  0
 19 26  1  6  0  0  0
 19 21  1  0  0  0  0
 20 19  1  0  0  0  0
 21 22  1  0  0  0  0
 21 24  1  0  0  0  0
 23 18  2  0  0  0  0
 24 25  2  0  0  0  0
 26 27  1  0  0  0  0
 26 28  1  0  0  0  0
 27 28  1  0  0  0  0
M  END
>  <MODEL>
3

>  <REMARK>
  Name = ZINC67271843
                            x       y       z     vdW  Elec       q    Type
                         _______ _______ _______ _____ _____    ______ ____

>  <TORSDO>
F 6

>  <minimizedAffinity>
-8.1747443003080669

$$$$
ZINC67271843
 OpenBabel10211214153D

 28 30  0  0  1  0  0  0  0  0999 V2000
   50.3300   52.3270   17.6710 N   0  0  0  0  0  0  0  0  0  0  0  0
   51.1220   51.9930   17.2230 H   0  0  0  0  0  0  0  0  0  0  0  0
   50.4440   52.9790   18.8460 C   0  0  0  0  0  0  0  0  0  0  0  0
   49.4520   53.3970   19.4060 O   0  0  0  0  0  0  0  0  0  0  0  0
   49.0090   52.1260   17.0710 C   0  0  0  0  0  0  0  0  0  0  0  0
   48.8400   50.6540   16.6920 C   0  0  2  0  0  0  0  0  0  0  0  0
   48.4950   50.5450   15.2050 C   0  0  0  0  0  0  0  0  0  0  0  0
   44.8060   47.4260   19.1070 C   0  0  0  0  0  0  0  0  0  0  0  0
   45.9390   47.9250   18.2080 C   0  0  1  0  0  0  0  0  0  0  0  0
   45.4760   49.1680   17.4440 C   0  0  0  0  0  0  0  0  0  0  0  0
   46.6390   49.7090   16.6070 C   0  0  0  0  0  0  0  0  0  0  0  0
   47.7570   50.0640   17.4900 N   0  0  0  0  0  0  0  0  0  0  0  0
   47.4430   50.7330   18.1750 H   0  0  0  0  0  0  0  0  0  0  0  0
   48.2530   48.8620   18.1730 C   0  0  0  0  0  0  0  0  0  0  0  0
   47.1520   48.2900   19.0690 C   0  0  0  0  0  0  0  0  0  0  0  0
   51.8020   53.1860   19.4640 C   0  0  0  0  0  0  0  0  0  0  0  0
   51.7960   54.4190   20.2550 N   0  0  0  0  0  0  0  0  0  0  0  0
   51.8040   55.6580   19.7250 C   0  0  0  0  0  0  0  0  0  0  0  0
   51.7920   56.6090   20.9050 C   0  0  1  0  0  0  0  0  0  0  0  0
   50.5360   57.4820   20.8810 C   0  0  0  0  0  0  0  0  0  0  0  0
   51.7780   55.7120   22.0730 N   0  0  0  0  0  0  0  0  0  0  0  0
   51.7680   55.9740   23.0060 H   0  0  0  0  0  0  0  0  0  0  0  0
   51.8170   55.9520   18.5480 O   0  0  0  0  0  0  0  0  0  0  0  0
   51.7760   54.4550   21.5920 C   0  0  0  0  0  0  0  0  0  0  0  0
   51.7620   53.4630   22.2940 O   0  0  0  0  0  0  0  0  0  0  0  0
   53.0520   57.4780   20.9090 C   0  0  0  0  0  0  0  0  0  0  0  0
   53.7330   57.7300   22.2560 C   0  0  0  0  0  0  0  0  0  0  0  0
   52.9580   58.8560   21.5680 C   0  0  0  0  0  0  0  0  0  0  0  0
  1  3  1  0  0  0  0
  2  1  1  0  0  0  0
  3  4  2  0  0  0  0
  3 16  1  0  0  0  0
  5  1  1  0  0  0  0
  6  7  1  6  0  0  0
  6  5  1  0  0  0  0
  6 12  1  0  0  0  0
  9 15  1  0  0  0  0
  9  8  1  1  0  0  0
 10  9  1  0  0  0  0
 11 10  1  0  0  0  0
 11 12  1  0  0  0  0
 12 14  1  0  0  0  0
 12 13  1  0  0  0  0
 14 15  1  0  0  0  0
 16 17  1  0  0  0  0
 17 24  1  0  0  0  0
 18 17  1  0  0  0  0
 18 19  1  0  0  0  0
 19 20  1  6  0  0  0
 19 26  1  0  0  0  0
 19 21  1  0  0  0  0
 21 22  1  0  0  0  0
 23 18  2  0  0  0  0
 24 21  1  0  0  0  0
 24 25  2  0  0  0  0
 26 28  1  0  0  0  0
 26 27  1  0  0  0  0
 28 27  1  0  0  0  0
M  END
>  <MODEL>
4

>  <REMARK>
  Name = ZINC67271843
                            x       y       z     vdW  Elec       q    Type
                         _______ _______ _______ _____ _____    ______ ____

>  <TORSDO>
F 6

>  <minimizedAffinity>
-7.998510263942916

$$$$
ZINC67271843
 OpenBabel10211214153D

 28 30  0  0  1  0  0  0  0  0999 V2000
   52.5390   52.0590   19.9690 N   0  0  0  0  0  0  0  0  0  0  0  0
   52.4530   52.2630   20.9130 H   0  0  0  0  0  0  0  0  0  0  0  0
   52.8220   53.0400   19.0900 C   0  0  0  0  0  0  0  0  0  0  0  0
   52.9300   52.7830   17.9090 O   0  0  0  0  0  0  0  0  0  0  0  0
   52.3630   50.6820   19.4990 C   0  0  0  0  0  0  0  0  0  0  0  0
   50.8940   50.2790   19.6400 C   0  0  2  0  0  0  0  0  0  0  0  0
   50.7680   49.1720   20.6880 C   0  0  0  0  0  0  0  0  0  0  0  0
   47.9750   48.9480   14.9250 C   0  0  0  0  0  0  0  0  0  0  0  0
   48.3760   49.5160   16.2880 C   0  0  1  0  0  0  0  0  0  0  0  0
   48.7370   48.3690   17.2350 C   0  0  0  0  0  0  0  0  0  0  0  0
   49.2140   48.9470   18.5700 C   0  0  0  0  0  0  0  0  0  0  0  0
   50.3950   49.7900   18.3480 N   0  0  0  0  0  0  0  0  0  0  0  0
   51.1130   49.2470   17.8950 H   0  0  0  0  0  0  0  0  0  0  0  0
   50.0390   50.9330   17.4980 C   0  0  0  0  0  0  0  0  0  0  0  0
   49.5940   50.4300   16.1230 C   0  0  0  0  0  0  0  0  0  0  0  0
   53.0030   54.4560   19.5730 C   0  0  0  0  0  0  0  0  0  0  0  0
   51.7350   54.9540   20.1130 N   0  0  0  0  0  0  0  0  0  0  0  0
   50.7990   55.5920   19.3810 C   0  0  0  0  0  0  0  0  0  0  0  0
   49.6750   55.9150   20.3450 C   0  0  1  0  0  0  0  0  0  0  0  0
   48.3810   55.2220   19.9150 C   0  0  0  0  0  0  0  0  0  0  0  0
   50.1530   55.3710   21.6280 N   0  0  0  0  0  0  0  0  0  0  0  0
   49.6870   55.3970   22.4790 H   0  0  0  0  0  0  0  0  0  0  0  0
   50.8460   55.8520   18.1970 O   0  0  0  0  0  0  0  0  0  0  0  0
   51.3600   54.8260   21.3900 C   0  0  0  0  0  0  0  0  0  0  0  0
   52.0360   54.2820   22.2410 O   0  0  0  0  0  0  0  0  0  0  0  0
   49.4700   57.4280   20.4450 C   0  0  0  0  0  0  0  0  0  0  0  0
   49.2780   58.0240   21.8410 C   0  0  0  0  0  0  0  0  0  0  0  0
   48.0900   57.9270   20.8800 C   0  0  0  0  0  0  0  0  0  0  0  0
  1  2  1  0  0  0  0
  3 16  1  0  0  0  0
  3  1  1  0  0  0  0
  4  3  2  0  0  0  0
  5  6  1  0  0  0  0
  5  1  1  0  0  0  0
  6 12  1  6  0  0  0
  6  7  1  0  0  0  0
  9  8  1  6  0  0  0
  9 10  1  0  0  0  0
 10 11  1  0  0  0  0
 12 11  1  0  0  0  0
 13 12  1  0  0  0  0
 14 12  1  0  0  0  0
 15  9  1  0  0  0  0
 15 14  1  0  0  0  0
 16 17  1  0  0  0  0
 17 24  1  0  0  0  0
 18 17  1  0  0  0  0
 18 19  1  0  0  0  0
 19 20  1  6  0  0  0
 19 26  1  0  0  0  0
 19 21  1  0  0  0  0
 21 22  1  0  0  0  0
 23 18  2  0  0  0  0
 24 21  1  0  0  0  0
 24 25  2  0  0  0  0
 26 28  1  0  0  0  0
 26 27  1  0  0  0  0
 28 27  1  0  0  0  0
M  END
>  <MODEL>
5

>  <REMARK>
  Name = ZINC67271843
                            x       y       z     vdW  Elec       q    Type
                         _______ _______ _______ _____ _____    ______ ____

>  <TORSDO>
F 6

>  <minimizedAffinity>
-7.9446636595036839

$$$$
ZINC67271843
 OpenBabel10211214153D

 28 30  0  0  1  0  0  0  0  0999 V2000
   50.5470   52.0080   17.8340 N   0  0  0  0  0  0  0  0  0  0  0  0
   51.2800   51.4640   18.1620 H   0  0  0  0  0  0  0  0  0  0  0  0
   49.6980   51.5100   16.9130 C   0  0  0  0  0  0  0  0  0  0  0  0
   48.7810   52.1910   16.5030 O   0  0  0  0  0  0  0  0  0  0  0  0
   50.3610   53.3700   18.3410 C   0  0  0  0  0  0  0  0  0  0  0  0
   50.9450   53.4720   19.7510 C   0  0  2  0  0  0  0  0  0  0  0  0
   50.7550   52.1410   20.4810 C   0  0  0  0  0  0  0  0  0  0  0  0
   48.7210   58.3100   21.7960 C   0  0  0  0  0  0  0  0  0  0  0  0
   49.4830   57.2940   20.9430 C   0  0  1  0  0  0  0  0  0  0  0  0
   50.5360   56.5890   21.8020 C   0  0  0  0  0  0  0  0  0  0  0  0
   51.2390   55.5190   20.9640 C   0  0  0  0  0  0  0  0  0  0  0  0
   50.2550   54.5380   20.4910 N   0  0  0  0  0  0  0  0  0  0  0  0
   49.7730   54.1400   21.2810 H   0  0  0  0  0  0  0  0  0  0  0  0
   49.2830   55.1940   19.6070 C   0  0  0  0  0  0  0  0  0  0  0  0
   48.5060   56.2510   20.3940 C   0  0  0  0  0  0  0  0  0  0  0  0
   49.8900   50.1100   16.3910 C   0  0  0  0  0  0  0  0  0  0  0  0
   48.7840   49.2630   16.8460 N   0  0  0  0  0  0  0  0  0  0  0  0
   47.8380   48.7520   16.0320 C   0  0  0  0  0  0  0  0  0  0  0  0
   46.9150   47.9510   16.9290 C   0  0  1  0  0  0  0  0  0  0  0  0
   46.9150   46.4760   16.5230 C   0  0  0  0  0  0  0  0  0  0  0  0
   47.5020   48.1210   18.2690 N   0  0  0  0  0  0  0  0  0  0  0  0
   47.1720   47.7440   19.0990 H   0  0  0  0  0  0  0  0  0  0  0  0
   47.7450   48.9000   14.8320 O   0  0  0  0  0  0  0  0  0  0  0  0
   48.5910   48.8970   18.1170 C   0  0  0  0  0  0  0  0  0  0  0  0
   49.3170   49.2310   19.0340 O   0  0  0  0  0  0  0  0  0  0  0  0
   45.4960   48.5220   16.8870 C   0  0  0  0  0  0  0  0  0  0  0  0
   44.4940   48.0010   17.9200 C   0  0  0  0  0  0  0  0  0  0  0  0
   44.3690   47.5820   16.4530 C   0  0  0  0  0  0  0  0  0  0  0  0
  1  2  1  0  0  0  0
  1  5  1  0  0  0  0
  3  1  1  0  0  0  0
  4  3  2  0  0  0  0
  6  5  1  1  0  0  0
  6  7  1  0  0  0  0
  6 12  1  0  0  0  0
  9  8  1  1  0  0  0
  9 10  1  0  0  0  0
 11 10  1  0  0  0  0
 12 11  1  0  0  0  0
 12 13  1  0  0  0  0
 14 15  1  0  0  0  0
 14 12  1  0  0  0  0
 15  9  1  0  0  0  0
 16 17  1  0  0  0  0
 16  3  1  0  0  0  0
 17 24  1  0  0  0  0
 18 17  1  0  0  0  0
 18 19  1  0  0  0  0
 19 20  1  6  0  0  0
 19 21  1  0  0  0  0
 21 22  1  0  0  0  0
 23 18  2  0  0  0  0
 24 21  1  0  0  0  0
 24 25  2  0  0  0  0
 26 19  1  0  0  0  0
 26 27  1  0  0  0  0
 28 26  1  0  0  0  0
 28 27  1  0  0  0  0
M  END
>  <MODEL>
6

>  <REMARK>
  Name = ZINC67271843
                            x       y       z     vdW  Elec       q    Type
                         _______ _______ _______ _____ _____    ______ ____

>  <TORSDO>
F 6

>  <minimizedAffinity>
-7.8665417300387093

$$$$
ZINC67271843
 OpenBabel10211214153D

 28 30  0  0  1  0  0  0  0  0999 V2000
   51.9570   52.7700   19.2520 N   0  0  0  0  0  0  0  0  0  0  0  0
   51.3010   52.3380   19.8210 H   0  0  0  0  0  0  0  0  0  0  0  0
   52.4940   52.1000   18.2130 C   0  0  0  0  0  0  0  0  0  0  0  0
   53.3150   52.6410   17.5020 O   0  0  0  0  0  0  0  0  0  0  0  0
   52.3630   54.1520   19.5210 C   0  0  0  0  0  0  0  0  0  0  0  0
   51.7170   54.6280   20.8230 C   0  0  2  0  0  0  0  0  0  0  0  0
   50.9790   53.4620   21.4830 C   0  0  0  0  0  0  0  0  0  0  0  0
   47.4100   58.3590   20.5790 C   0  0  0  0  0  0  0  0  0  0  0  0
   48.3200   57.1970   20.9820 C   0  0  1  0  0  0  0  0  0  0  0  0
   48.4870   56.2420   19.7970 C   0  0  0  0  0  0  0  0  0  0  0  0
   49.4610   55.1260   20.1810 C   0  0  0  0  0  0  0  0  0  0  0  0
   50.7640   55.7080   20.5300 N   0  0  0  0  0  0  0  0  0  0  0  0
   51.1040   56.2540   19.7540 H   0  0  0  0  0  0  0  0  0  0  0  0
   50.6250   56.5700   21.7100 C   0  0  0  0  0  0  0  0  0  0  0  0
   49.6950   57.7400   21.3840 C   0  0  0  0  0  0  0  0  0  0  0  0
   52.0770   50.6780   17.9370 C   0  0  0  0  0  0  0  0  0  0  0  0
   50.7100   50.6630   17.4090 N   0  0  0  0  0  0  0  0  0  0  0  0
   49.6070   50.8520   18.1610 C   0  0  0  0  0  0  0  0  0  0  0  0
   48.4370   50.7550   17.2030 C   0  0  1  0  0  0  0  0  0  0  0  0
   47.6570   52.0700   17.1710 C   0  0  0  0  0  0  0  0  0  0  0  0
   49.0760   50.4980   15.9010 N   0  0  0  0  0  0  0  0  0  0  0  0
   48.6290   50.3780   15.0490 H   0  0  0  0  0  0  0  0  0  0  0  0
   49.5610   51.0580   19.3560 O   0  0  0  0  0  0  0  0  0  0  0  0
   50.4030   50.4680   16.1230 C   0  0  0  0  0  0  0  0  0  0  0  0
   51.2300   50.2790   15.2520 O   0  0  0  0  0  0  0  0  0  0  0  0
   47.5200   49.5930   17.5900 C   0  0  0  0  0  0  0  0  0  0  0  0
   46.7700   48.8790   16.4640 C   0  0  0  0  0  0  0  0  0  0  0  0
   46.0120   49.7980   17.4250 C   0  0  0  0  0  0  0  0  0  0  0  0
  1  5  1  0  0  0  0
  1  2  1  0  0  0  0
  3  1  1  0  0  0  0
  4  3  2  0  0  0  0
  6  5  1  6  0  0  0
  6  7  1  0  0  0  0
  9  8  1  6  0  0  0
  9 15  1  0  0  0  0
 10 11  1  0  0  0  0
 10  9  1  0  0  0  0
 11 12  1  0  0  0  0
 12  6  1  0  0  0  0
 12 14  1  0  0  0  0
 13 12  1  0  0  0  0
 15 14  1  0  0  0  0
 16  3  1  0  0  0  0
 17 16  1  0  0  0  0
 17 18  1  0  0  0  0
 18 23  2  0  0  0  0
 19 20  1  6  0  0  0
 19 26  1  0  0  0  0
 19 18  1  0  0  0  0
 21 24  1  0  0  0  0
 21 19  1  0  0  0  0
 22 21  1  0  0  0  0
 24 17  1  0  0  0  0
 25 24  2  0  0  0  0
 27 28  1  0  0  0  0
 27 26  1  0  0  0  0
 28 26  1  0  0  0  0
M  END
>  <MODEL>
7

>  <REMARK>
  Name = ZINC67271843
                            x       y       z     vdW  Elec       q    Type
                         _______ _______ _______ _____ _____    ______ ____

>  <TORSDO>
F 6

>  <minimizedAffinity>
-7.8661534780335671

$$$$
ZINC67271843
 OpenBabel10211214153D

 28 30  0  0  1  0  0  0  0  0999 V2000
   49.8680   52.2480   18.1200 N   0  0  0  0  0  0  0  0  0  0  0  0
   49.4160   52.7130   17.3990 H   0  0  0  0  0  0  0  0  0  0  0  0
   50.1050   50.9250   18.0250 C   0  0  0  0  0  0  0  0  0  0  0  0
   50.6700   50.3440   18.9280 O   0  0  0  0  0  0  0  0  0  0  0  0
   50.2940   52.9850   19.3130 C   0  0  0  0  0  0  0  0  0  0  0  0
   51.1490   54.1820   18.8940 C   0  0  2  0  0  0  0  0  0  0  0  0
   52.5520   54.0410   19.4890 C   0  0  0  0  0  0  0  0  0  0  0  0
   48.7430   58.4340   21.8370 C   0  0  0  0  0  0  0  0  0  0  0  0
   49.3770   57.0960   21.4490 C   0  0  1  0  0  0  0  0  0  0  0  0
   48.5230   56.4170   20.3750 C   0  0  0  0  0  0  0  0  0  0  0  0
   49.2030   55.1190   19.9340 C   0  0  0  0  0  0  0  0  0  0  0  0
   50.5310   55.4210   19.3860 N   0  0  0  0  0  0  0  0  0  0  0  0
   50.4380   56.0740   18.6240 H   0  0  0  0  0  0  0  0  0  0  0  0
   51.3800   56.0070   20.4310 C   0  0  0  0  0  0  0  0  0  0  0  0
   50.7820   57.3390   20.8900 C   0  0  0  0  0  0  0  0  0  0  0  0
   49.6670   50.1670   16.7990 C   0  0  0  0  0  0  0  0  0  0  0  0
   48.3080   49.6560   17.0000 N   0  0  0  0  0  0  0  0  0  0  0  0
   48.0150   48.3660   17.2610 C   0  0  0  0  0  0  0  0  0  0  0  0
   46.5070   48.3070   17.3920 C   0  0  1  0  0  0  0  0  0  0  0  0
   46.1050   47.8410   18.7930 C   0  0  0  0  0  0  0  0  0  0  0  0
   46.0840   49.7000   17.1670 N   0  0  0  0  0  0  0  0  0  0  0  0
   45.1760   50.0400   17.1760 H   0  0  0  0  0  0  0  0  0  0  0  0
   48.7970   47.4450   17.3700 O   0  0  0  0  0  0  0  0  0  0  0  0
   47.2060   50.4120   16.9530 C   0  0  0  0  0  0  0  0  0  0  0  0
   47.2160   51.6080   16.7360 O   0  0  0  0  0  0  0  0  0  0  0  0
   45.9100   47.3860   16.3260 C   0  0  0  0  0  0  0  0  0  0  0  0
   46.1220   47.7720   14.8600 C   0  0  0  0  0  0  0  0  0  0  0  0
   44.7400   47.9250   15.5000 C   0  0  0  0  0  0  0  0  0  0  0  0
  1  5  1  0  0  0  0
  2  1  1  0  0  0  0
  3  1  1  0  0  0  0
  3  4  2  0  0  0  0
  6  5  1  1  0  0  0
  6 12  1  0  0  0  0
  6  7  1  0  0  0  0
  9  8  1  6  0  0  0
 10  9  1  0  0  0  0
 11 10  1  0  0  0  0
 12 11  1  0  0  0  0
 12 14  1  0  0  0  0
 13 12  1  0  0  0  0
 14 15  1  0  0  0  0
 15  9  1  0  0  0  0
 16 17  1  0  0  0  0
 16  3  1  0  0  0  0
 17 18  1  0  0  0  0
 18 23  2  0  0  0  0
 18 19  1  0  0  0  0
 19 26  1  6  0  0  0
 19 20  1  0  0  0  0
 21 22  1  0  0  0  0
 21 19  1  0  0  0  0
 24 17  1  0  0  0  0
 24 21  1  0  0  0  0
 25 24  2  0  0  0  0
 27 28  1  0  0  0  0
 27 26  1  0  0  0  0
 28 26  1  0  0  0  0
M  END
>  <MODEL>
8

>  <REMARK>
  Name = ZINC67271843
                            x       y       z     vdW  Elec       q    Type
                         _______ _______ _______ _____ _____    ______ ____

>  <TORSDO>
F 6

>  <minimizedAffinity>
-7.838644443848187

$$$$
ZINC67271843
 OpenBabel10211214153D

 28 30  0  0  1  0  0  0  0  0999 V2000
   50.4660   50.8740   18.8340 N   0  0  0  0  0  0  0  0  0  0  0  0
   49.9470   51.1570   19.6030 H   0  0  0  0  0  0  0  0  0  0  0  0
   51.8090   50.9800   18.8500 C   0  0  0  0  0  0  0  0  0  0  0  0
   52.4570   50.6260   17.8870 O   0  0  0  0  0  0  0  0  0  0  0  0
   49.7890   50.3290   17.6540 C   0  0  0  0  0  0  0  0  0  0  0  0
   48.3250   50.0420   17.9950 C   0  0  2  0  0  0  0  0  0  0  0  0
   48.2420   48.7970   18.8810 C   0  0  0  0  0  0  0  0  0  0  0  0
   45.7860   48.0430   13.2950 C   0  0  0  0  0  0  0  0  0  0  0  0
   46.6060   48.1550   14.5820 C   0  0  1  0  0  0  0  0  0  0  0  0
   47.7220   49.1860   14.3900 C   0  0  0  0  0  0  0  0  0  0  0  0
   48.4880   49.3510   15.7050 C   0  0  0  0  0  0  0  0  0  0  0  0
   47.5710   49.8100   16.7550 N   0  0  0  0  0  0  0  0  0  0  0  0
   47.1330   50.6710   16.4640 H   0  0  0  0  0  0  0  0  0  0  0  0
   46.5390   48.7940   16.9950 C   0  0  0  0  0  0  0  0  0  0  0  0
   45.6990   48.6080   15.7290 C   0  0  0  0  0  0  0  0  0  0  0  0
   52.5060   51.5410   20.0620 C   0  0  0  0  0  0  0  0  0  0  0  0
   52.1190   52.9430   20.2440 N   0  0  0  0  0  0  0  0  0  0  0  0
   51.2990   53.3810   21.2210 C   0  0  0  0  0  0  0  0  0  0  0  0
   51.1870   54.8790   21.0210 C   0  0  1  0  0  0  0  0  0  0  0  0
   51.7210   55.6270   22.2440 C   0  0  0  0  0  0  0  0  0  0  0  0
   52.0350   55.1350   19.8440 N   0  0  0  0  0  0  0  0  0  0  0  0
   52.2010   55.9940   19.4250 H   0  0  0  0  0  0  0  0  0  0  0  0
   50.7640   52.7150   22.0820 O   0  0  0  0  0  0  0  0  0  0  0  0
   52.5390   53.9460   19.4660 C   0  0  0  0  0  0  0  0  0  0  0  0
   53.2890   53.8000   18.5210 O   0  0  0  0  0  0  0  0  0  0  0  0
   49.7370   55.2760   20.7360 C   0  0  0  0  0  0  0  0  0  0  0  0
   49.4810   56.2230   19.5620 C   0  0  0  0  0  0  0  0  0  0  0  0
   49.3390   56.7300   20.9990 C   0  0  0  0  0  0  0  0  0  0  0  0
  1  3  1  0  0  0  0
  1  2  1  0  0  0  0
  3 16  1  0  0  0  0
  4  3  2  0  0  0  0
  5  6  1  0  0  0  0
  5  1  1  0  0  0  0
  6 12  1  6  0  0  0
  6  7  1  0  0  0  0
  9  8  1  6  0  0  0
  9 15  1  0  0  0  0
 10  9  1  0  0  0  0
 10 11  1  0  0  0  0
 11 12  1  0  0  0  0
 12 14  1  0  0  0  0
 13 12  1  0  0  0  0
 15 14  1  0  0  0  0
 16 17  1  0  0  0  0
 17 18  1  0  0  0  0
 18 23  2  0  0  0  0
 19 26  1  6  0  0  0
 19 18  1  0  0  0  0
 19 20  1  0  0  0  0
 21 19  1  0  0  0  0
 22 21  1  0  0  0  0
 24 21  1  0  0  0  0
 24 17  1  0  0  0  0
 25 24  2  0  0  0  0
 26 28  1  0  0  0  0
 27 26  1  0  0  0  0
 27 28  1  0  0  0  0
M  END
>  <MODEL>
9

>  <REMARK>
  Name = ZINC67271843
                            x       y       z     vdW  Elec       q    Type
                         _______ _______ _______ _____ _____    ______ ____

>  <TORSDO>
F 6

>  <minimizedAffinity>
-7.800388898101037

$$$$
ZINC65371431
 OpenBabel10211214163D

 25 26  0  0  0  0  0  0  0  0999 V2000
   51.1900   50.9400   18.1090 C   0  0  0  0  0  0  0  0  0  0  0  0
   49.8120   50.4110   17.8100 C   0  0  0  0  0  0  0  0  0  0  0  0
   49.5880   49.0820   17.8010 N   0  0  0  0  0  0  0  0  0  0  0  0
   50.3150   48.4660   17.9860 H   0  0  0  0  0  0  0  0  0  0  0  0
   48.9040   51.1800   17.5790 O   0  0  0  0  0  0  0  0  0  0  0  0
   48.2470   48.5670   17.5100 C   0  0  0  0  0  0  0  0  0  0  0  0
   47.4600   48.4290   18.8150 C   0  0  0  0  0  0  0  0  0  0  0  0
   45.9710   48.2810   18.4990 C   0  0  0  0  0  0  0  0  0  0  0  0
   45.5760   49.2910   17.4190 C   0  0  0  0  0  0  0  0  0  0  0  0
   45.2040   48.5460   16.1350 C   0  0  0  0  0  0  0  0  0  0  0  0
   46.4770   48.0600   15.4410 C   0  0  0  0  0  0  0  0  0  0  0  0
   47.0270   46.8390   16.1810 C   0  0  0  0  0  0  0  0  0  0  0  0
   48.3620   47.1970   16.8370 C   0  0  0  0  0  0  0  0  0  0  0  0
   51.9350   49.9500   18.8990 N   0  0  0  0  0  0  0  0  0  0  0  0
   51.6150   49.0230   18.6630 H   0  0  0  0  0  0  0  0  0  0  0  0
   52.9200   50.0290   18.6940 H   0  0  0  0  0  0  0  0  0  0  0  0
   51.7120   50.1970   20.3300 C   0  0  0  0  0  0  0  0  0  0  0  0
   52.2560   51.5780   20.7000 C   0  0  0  0  0  0  0  0  0  0  0  0
   50.9770   52.5140   21.5820 S   0  0  0  0  0  0  0  0  0  0  0  0
   51.9240   54.5990   19.2050 C   0  0  0  0  0  0  0  0  0  0  0  0
   51.9940   54.9300   20.6300 N   0  0  0  0  0  0  0  0  0  0  0  0
   51.6320   54.1480   21.6740 C   0  0  0  0  0  0  0  0  0  0  0  0
   51.8600   54.8370   22.7710 N   0  0  0  0  0  0  0  0  0  0  0  0
   52.3400   55.9930   22.4850 N   0  0  0  0  0  0  0  0  0  0  0  0
   52.4570   56.1250   21.2080 N   0  0  0  0  0  0  0  0  0  0  0  0
  1 14  1  0  0  0  0
  2  1  1  0  0  0  0
  3  2  1  0  0  0  0
  3  4  1  0  0  0  0
  5  2  2  0  0  0  0
  6  3  1  0  0  0  0
  6  7  1  0  0  0  0
  8  7  1  0  0  0  0
  9  8  1  0  0  0  0
 10  9  1  0  0  0  0
 11 10  1  0  0  0  0
 11 12  1  0  0  0  0
 12 13  1  0  0  0  0
 13  6  1  0  0  0  0
 14 17  1  0  0  0  0
 15 14  1  0  0  0  0
 16 14  1  0  0  0  0
 17 18  1  0  0  0  0
 18 19  1  0  0  0  0
 19 22  1  0  0  0  0
 20 21  1  0  0  0  0
 21 25  1  0  0  0  0
 21 22  1  0  0  0  0
 22 23  2  0  0  0  0
 24 23  1  0  0  0  0
 25 24  2  0  0  0  0
M  END
>  <MODEL>
1

>  <REMARK>
  Name = ZINC65371431
                            x       y       z     vdW  Elec       q    Type
                         _______ _______ _______ _____ _____    ______ ____

>  <TORSDO>
F 7

>  <minimizedAffinity>
-8.1532536483706117

$$$$
ZINC65371431
 OpenBabel10211214163D

 25 26  0  0  0  0  0  0  0  0999 V2000
   51.6260   51.0960   17.8360 C   0  0  0  0  0  0  0  0  0  0  0  0
   50.2630   50.5470   17.5030 C   0  0  0  0  0  0  0  0  0  0  0  0
   49.9180   49.3080   17.9060 N   0  0  0  0  0  0  0  0  0  0  0  0
   50.5470   48.7700   18.4110 H   0  0  0  0  0  0  0  0  0  0  0  0
   49.4760   51.2210   16.8720 O   0  0  0  0  0  0  0  0  0  0  0  0
   48.5920   48.7750   17.5820 C   0  0  0  0  0  0  0  0  0  0  0  0
   47.7580   48.6710   18.8600 C   0  0  0  0  0  0  0  0  0  0  0  0
   46.2830   48.5020   18.4940 C   0  0  0  0  0  0  0  0  0  0  0  0
   45.9210   49.4760   17.3710 C   0  0  0  0  0  0  0  0  0  0  0  0
   45.6020   48.6910   16.0970 C   0  0  0  0  0  0  0  0  0  0  0  0
   46.9030   48.1940   15.4650 C   0  0  0  0  0  0  0  0  0  0  0  0
   47.4330   47.0000   16.2610 C   0  0  0  0  0  0  0  0  0  0  0  0
   48.7400   47.3870   16.9540 C   0  0  0  0  0  0  0  0  0  0  0  0
   51.5280   52.5430   18.0700 N   0  0  0  0  0  0  0  0  0  0  0  0
   52.1300   53.0300   17.4240 H   0  0  0  0  0  0  0  0  0  0  0  0
   50.5740   52.8420   17.9330 H   0  0  0  0  0  0  0  0  0  0  0  0
   51.9410   52.8460   19.4470 C   0  0  0  0  0  0  0  0  0  0  0  0
   52.2010   54.3470   19.5830 C   0  0  0  0  0  0  0  0  0  0  0  0
   51.7280   54.8950   21.2460 S   0  0  0  0  0  0  0  0  0  0  0  0
   50.1900   57.7650   21.7840 C   0  0  0  0  0  0  0  0  0  0  0  0
   51.6370   57.6620   21.5760 N   0  0  0  0  0  0  0  0  0  0  0  0
   52.3560   56.5380   21.3500 C   0  0  0  0  0  0  0  0  0  0  0  0
   53.6130   56.9030   21.2210 N   0  0  0  0  0  0  0  0  0  0  0  0
   53.7280   58.1750   21.3510 N   0  0  0  0  0  0  0  0  0  0  0  0
   52.5740   58.7090   21.5620 N   0  0  0  0  0  0  0  0  0  0  0  0
  1 14  1  0  0  0  0
  2  1  1  0  0  0  0
  2  3  1  0  0  0  0
  3  4  1  0  0  0  0
  5  2  2  0  0  0  0
  6  3  1  0  0  0  0
  6  7  1  0  0  0  0
  8  7  1  0  0  0  0
  9  8  1  0  0  0  0
 10  9  1  0  0  0  0
 11 10  1  0  0  0  0
 11 12  1  0  0  0  0
 12 13  1  0  0  0  0
 13  6  1  0  0  0  0
 14 17  1  0  0  0  0
 15 14  1  0  0  0  0
 16 14  1  0  0  0  0
 17 18  1  0  0  0  0
 18 19  1  0  0  0  0
 19 22  1  0  0  0  0
 21 20  1  0  0  0  0
 22 21  1  0  0  0  0
 23 22  2  0  0  0  0
 23 24  1  0  0  0  0
 24 25  2  0  0  0  0
 25 21  1  0  0  0  0
M  END
>  <MODEL>
2

>  <REMARK>
  Name = ZINC65371431
                            x       y       z     vdW  Elec       q    Type
                         _______ _______ _______ _____ _____    ______ ____

>  <TORSDO>
F 7

>  <minimizedAffinity>
-7.8721256398544339

$$$$
ZINC65371431
 OpenBabel10211214163D

 25 26  0  0  0  0  0  0  0  0999 V2000
   52.1790   51.8040   18.2760 C   0  0  0  0  0  0  0  0  0  0  0  0
   50.9990   50.8940   18.0550 C   0  0  0  0  0  0  0  0  0  0  0  0
   50.1660   51.1100   17.0170 N   0  0  0  0  0  0  0  0  0  0  0  0
   50.3260   51.8530   16.4140 H   0  0  0  0  0  0  0  0  0  0  0  0
   50.7990   49.9650   18.8080 O   0  0  0  0  0  0  0  0  0  0  0  0
   49.0190   50.2250   16.8020 C   0  0  0  0  0  0  0  0  0  0  0  0
   49.0020   49.7580   15.3450 C   0  0  0  0  0  0  0  0  0  0  0  0
   48.0730   48.5510   15.2070 C   0  0  0  0  0  0  0  0  0  0  0  0
   48.3220   47.5800   16.3640 C   0  0  0  0  0  0  0  0  0  0  0  0
   47.0890   47.5390   17.2700 C   0  0  0  0  0  0  0  0  0  0  0  0
   47.0460   48.8040   18.1280 C   0  0  0  0  0  0  0  0  0  0  0  0
   46.5770   49.9840   17.2740 C   0  0  0  0  0  0  0  0  0  0  0  0
   47.7250   50.9820   17.1090 C   0  0  0  0  0  0  0  0  0  0  0  0
   51.7080   53.1860   18.4370 N   0  0  0  0  0  0  0  0  0  0  0  0
   52.4900   53.8180   18.3620 H   0  0  0  0  0  0  0  0  0  0  0  0
   51.0330   53.3970   17.7160 H   0  0  0  0  0  0  0  0  0  0  0  0
   51.0790   53.3390   19.7550 C   0  0  0  0  0  0  0  0  0  0  0  0
   51.8220   54.4130   20.5530 C   0  0  0  0  0  0  0  0  0  0  0  0
   52.2320   55.8020   19.4610 S   0  0  0  0  0  0  0  0  0  0  0  0
   50.8750   57.8660   21.6490 C   0  0  0  0  0  0  0  0  0  0  0  0
   52.3180   57.7960   21.4080 N   0  0  0  0  0  0  0  0  0  0  0  0
   52.9680   56.9880   20.5370 C   0  0  0  0  0  0  0  0  0  0  0  0
   54.2510   57.2550   20.6450 N   0  0  0  0  0  0  0  0  0  0  0  0
   54.4470   58.1730   21.5210 N   0  0  0  0  0  0  0  0  0  0  0  0
   53.3260   58.5580   22.0250 N   0  0  0  0  0  0  0  0  0  0  0  0
  1 14  1  0  0  0  0
  2  1  1  0  0  0  0
  2  5  2  0  0  0  0
  3  2  1  0  0  0  0
  4  3  1  0  0  0  0
  6  3  1  0  0  0  0
  6 13  1  0  0  0  0
  7  6  1  0  0  0  0
  8  7  1  0  0  0  0
  8  9  1  0  0  0  0
  9 10  1  0  0  0  0
 10 11  1  0  0  0  0
 12 11  1  0  0  0  0
 13 12  1  0  0  0  0
 14 17  1  0  0  0  0
 15 14  1  0  0  0  0
 16 14  1  0  0  0  0
 17 18  1  0  0  0  0
 19 22  1  0  0  0  0
 19 18  1  0  0  0  0
 21 20  1  0  0  0  0
 21 25  1  0  0  0  0
 22 23  2  0  0  0  0
 22 21  1  0  0  0  0
 23 24  1  0  0  0  0
 24 25  2  0  0  0  0
M  END
>  <MODEL>
3

>  <REMARK>
  Name = ZINC65371431
                            x       y       z     vdW  Elec       q    Type
                         _______ _______ _______ _____ _____    ______ ____

>  <TORSDO>
F 7

>  <minimizedAffinity>
-7.798936115986085

$$$$
ZINC65371431
 OpenBabel10211214163D

 25 26  0  0  0  0  0  0  0  0999 V2000
   51.5360   50.9490   18.5370 C   0  0  0  0  0  0  0  0  0  0  0  0
   50.2200   50.4440   18.0080 C   0  0  0  0  0  0  0  0  0  0  0  0
   49.7990   49.2020   18.3210 N   0  0  0  0  0  0  0  0  0  0  0  0
   50.3440   48.6330   18.8870 H   0  0  0  0  0  0  0  0  0  0  0  0
   49.5370   51.1540   17.3010 O   0  0  0  0  0  0  0  0  0  0  0  0
   48.5180   48.7110   17.8060 C   0  0  0  0  0  0  0  0  0  0  0  0
   47.5270   48.5620   18.9620 C   0  0  0  0  0  0  0  0  0  0  0  0
   46.1080   48.4390   18.4050 C   0  0  0  0  0  0  0  0  0  0  0  0
   45.9050   49.4730   17.2950 C   0  0  0  0  0  0  0  0  0  0  0  0
   45.7390   48.7560   15.9540 C   0  0  0  0  0  0  0  0  0  0  0  0
   47.1040   48.2640   15.4670 C   0  0  0  0  0  0  0  0  0  0  0  0
   47.5110   47.0230   16.2630 C   0  0  0  0  0  0  0  0  0  0  0  0
   48.7250   47.3510   17.1340 C   0  0  0  0  0  0  0  0  0  0  0  0
   51.7680   52.3150   18.0520 N   0  0  0  0  0  0  0  0  0  0  0  0
   52.2470   52.2800   17.1650 H   0  0  0  0  0  0  0  0  0  0  0  0
   50.8820   52.7870   17.9380 H   0  0  0  0  0  0  0  0  0  0  0  0
   52.5900   53.0480   19.0240 C   0  0  0  0  0  0  0  0  0  0  0  0
   52.1230   52.7130   20.4420 C   0  0  0  0  0  0  0  0  0  0  0  0
   51.6600   54.2410   21.3030 S   0  0  0  0  0  0  0  0  0  0  0  0
   49.8980   57.0180   21.5760 C   0  0  0  0  0  0  0  0  0  0  0  0
   49.5130   55.9120   20.6950 N   0  0  0  0  0  0  0  0  0  0  0  0
   50.1660   54.7400   20.5140 C   0  0  0  0  0  0  0  0  0  0  0  0
   49.4740   54.0430   19.6390 N   0  0  0  0  0  0  0  0  0  0  0  0
   48.4370   54.6990   19.2610 N   0  0  0  0  0  0  0  0  0  0  0  0
   48.3850   55.8390   19.8600 N   0  0  0  0  0  0  0  0  0  0  0  0
  2  3  1  0  0  0  0
  2  1  1  0  0  0  0
  3  4  1  0  0  0  0
  5  2  2  0  0  0  0
  6  3  1  0  0  0  0
  6  7  1  0  0  0  0
  8  7  1  0  0  0  0
  9  8  1  0  0  0  0
 10  9  1  0  0  0  0
 11 10  1  0  0  0  0
 11 12  1  0  0  0  0
 12 13  1  0  0  0  0
 13  6  1  0  0  0  0
 14  1  1  0  0  0  0
 14 17  1  0  0  0  0
 15 14  1  0  0  0  0
 16 14  1  0  0  0  0
 17 18  1  0  0  0  0
 18 19  1  0  0  0  0
 21 20  1  0  0  0  0
 22 21  1  0  0  0  0
 22 19  1  0  0  0  0
 23 22  2  0  0  0  0
 24 23  1  0  0  0  0
 24 25  2  0  0  0  0
 25 21  1  0  0  0  0
M  END
>  <MODEL>
4

>  <REMARK>
  Name = ZINC65371431
                            x       y       z     vdW  Elec       q    Type
                         _______ _______ _______ _____ _____    ______ ____

>  <TORSDO>
F 7

>  <minimizedAffinity>
-7.6758353487077473

$$$$
ZINC65371431
 OpenBabel10211214163D

 25 26  0  0  0  0  0  0  0  0999 V2000
   50.6420   52.0390   18.9630 C   0  0  0  0  0  0  0  0  0  0  0  0
   49.6200   51.2370   18.2010 C   0  0  0  0  0  0  0  0  0  0  0  0
   49.1910   50.0550   18.6880 N   0  0  0  0  0  0  0  0  0  0  0  0
   49.5420   49.7210   19.5280 H   0  0  0  0  0  0  0  0  0  0  0  0
   49.1810   51.6550   17.1510 O   0  0  0  0  0  0  0  0  0  0  0  0
   48.1960   49.2750   17.9470 C   0  0  0  0  0  0  0  0  0  0  0  0
   47.2850   48.5430   18.9330 C   0  0  0  0  0  0  0  0  0  0  0  0
   46.0290   48.0610   18.2060 C   0  0  0  0  0  0  0  0  0  0  0  0
   45.5060   49.1750   17.2970 C   0  0  0  0  0  0  0  0  0  0  0  0
   45.6630   48.7560   15.8330 C   0  0  0  0  0  0  0  0  0  0  0  0
   47.1300   48.8870   15.4200 C   0  0  0  0  0  0  0  0  0  0  0  0
   47.9300   47.7230   16.0070 C   0  0  0  0  0  0  0  0  0  0  0  0
   48.9090   48.2540   17.0570 C   0  0  0  0  0  0  0  0  0  0  0  0
   51.8080   52.2890   18.1040 N   0  0  0  0  0  0  0  0  0  0  0  0
   52.3600   51.4480   18.0350 H   0  0  0  0  0  0  0  0  0  0  0  0
   51.4950   52.5640   17.1850 H   0  0  0  0  0  0  0  0  0  0  0  0
   52.6230   53.3640   18.6860 C   0  0  0  0  0  0  0  0  0  0  0  0
   51.7850   54.1490   19.6970 C   0  0  0  0  0  0  0  0  0  0  0  0
   51.7890   55.9070   19.2500 S   0  0  0  0  0  0  0  0  0  0  0  0
   51.3810   56.2500   22.5070 C   0  0  0  0  0  0  0  0  0  0  0  0
   52.5610   56.7470   21.7940 N   0  0  0  0  0  0  0  0  0  0  0  0
   52.8190   56.6550   20.4690 C   0  0  0  0  0  0  0  0  0  0  0  0
   53.9840   57.2300   20.2600 N   0  0  0  0  0  0  0  0  0  0  0  0
   54.4700   57.6730   21.3630 N   0  0  0  0  0  0  0  0  0  0  0  0
   53.6650   57.4260   22.3390 N   0  0  0  0  0  0  0  0  0  0  0  0
  2  3  1  0  0  0  0
  2  1  1  0  0  0  0
  3  4  1  0  0  0  0
  5  2  2  0  0  0  0
  6  3  1  0  0  0  0
  6  7  1  0  0  0  0
  8  7  1  0  0  0  0
  9  8  1  0  0  0  0
 10  9  1  0  0  0  0
 11 10  1  0  0  0  0
 11 12  1  0  0  0  0
 12 13  1  0  0  0  0
 13  6  1  0  0  0  0
 14 17  1  0  0  0  0
 14  1  1  0  0  0  0
 15 14  1  0  0  0  0
 16 14  1  0  0  0  0
 17 18  1  0  0  0  0
 19 18  1  0  0  0  0
 19 22  1  0  0  0  0
 21 25  1  0  0  0  0
 21 20  1  0  0  0  0
 22 21  1  0  0  0  0
 23 22  2  0  0  0  0
 23 24  1  0  0  0  0
 24 25  2  0  0  0  0
M  END
>  <MODEL>
5

>  <REMARK>
  Name = ZINC65371431
                            x       y       z     vdW  Elec       q    Type
                         _______ _______ _______ _____ _____    ______ ____

>  <TORSDO>
F 7

>  <minimizedAffinity>
-7.6691046245915127

$$$$
ZINC65371431
 OpenBabel10211214163D

 25 26  0  0  0  0  0  0  0  0999 V2000
   51.5860   49.9090   19.5200 C   0  0  0  0  0  0  0  0  0  0  0  0
   50.2380   49.4150   19.0660 C   0  0  0  0  0  0  0  0  0  0  0  0
   49.8550   49.5800   17.7840 N   0  0  0  0  0  0  0  0  0  0  0  0
   50.4490   50.0190   17.1540 H   0  0  0  0  0  0  0  0  0  0  0  0
   49.4970   48.8660   19.8530 O   0  0  0  0  0  0  0  0  0  0  0  0
   48.5440   49.0990   17.3430 C   0  0  0  0  0  0  0  0  0  0  0  0
   48.6370   48.6210   15.8930 C   0  0  0  0  0  0  0  0  0  0  0  0
   47.4130   47.7680   15.5570 C   0  0  0  0  0  0  0  0  0  0  0  0
   47.1330   46.8020   16.7100 C   0  0  0  0  0  0  0  0  0  0  0  0
   45.8110   47.1790   17.3830 C   0  0  0  0  0  0  0  0  0  0  0  0
   46.0200   48.4170   18.2580 C   0  0  0  0  0  0  0  0  0  0  0  0
   46.1090   49.6590   17.3700 C   0  0  0  0  0  0  0  0  0  0  0  0
   47.5240   50.2360   17.4400 C   0  0  0  0  0  0  0  0  0  0  0  0
   52.2590   50.5900   18.4060 N   0  0  0  0  0  0  0  0  0  0  0  0
   53.2230   50.2960   18.3640 H   0  0  0  0  0  0  0  0  0  0  0  0
   51.7970   50.3540   17.5390 H   0  0  0  0  0  0  0  0  0  0  0  0
   52.1990   52.0430   18.6110 C   0  0  0  0  0  0  0  0  0  0  0  0
   52.0740   52.3420   20.1070 C   0  0  0  0  0  0  0  0  0  0  0  0
   50.5220   53.2260   20.4190 S   0  0  0  0  0  0  0  0  0  0  0  0
   49.3690   56.3180   20.4700 C   0  0  0  0  0  0  0  0  0  0  0  0
   50.4710   55.8640   21.3220 N   0  0  0  0  0  0  0  0  0  0  0  0
   51.0120   54.6240   21.3740 C   0  0  0  0  0  0  0  0  0  0  0  0
   51.9720   54.6590   22.2720 N   0  0  0  0  0  0  0  0  0  0  0  0
   52.0680   55.8330   22.7830 N   0  0  0  0  0  0  0  0  0  0  0  0
   51.1980   56.6230   22.2560 N   0  0  0  0  0  0  0  0  0  0  0  0
  2  1  1  0  0  0  0
  2  5  2  0  0  0  0
  3  2  1  0  0  0  0
  4  3  1  0  0  0  0
  6 13  1  0  0  0  0
  6  3  1  0  0  0  0
  7  6  1  0  0  0  0
  8  7  1  0  0  0  0
  8  9  1  0  0  0  0
  9 10  1  0  0  0  0
 10 11  1  0  0  0  0
 12 13  1  0  0  0  0
 12 11  1  0  0  0  0
 14 17  1  0  0  0  0
 14  1  1  0  0  0  0
 15 14  1  0  0  0  0
 16 14  1  0  0  0  0
 17 18  1  0  0  0  0
 18 19  1  0  0  0  0
 19 22  1  0  0  0  0
 20 21  1  0  0  0  0
 21 22  1  0  0  0  0
 21 25  1  0  0  0  0
 22 23  2  0  0  0  0
 23 24  1  0  0  0  0
 25 24  2  0  0  0  0
M  END
>  <MODEL>
6

>  <REMARK>
  Name = ZINC65371431
                            x       y       z     vdW  Elec       q    Type
                         _______ _______ _______ _____ _____    ______ ____

>  <TORSDO>
F 7

>  <minimizedAffinity>
-7.5408449190806266

$$$$
ZINC65371431
 OpenBabel10211214163D

 25 26  0  0  0  0  0  0  0  0999 V2000
   51.6480   50.0460   19.8510 C   0  0  0  0  0  0  0  0  0  0  0  0
   50.3540   49.5140   19.2930 C   0  0  0  0  0  0  0  0  0  0  0  0
   50.0200   49.7600   18.0110 N   0  0  0  0  0  0  0  0  0  0  0  0
   50.6130   50.2810   17.4470 H   0  0  0  0  0  0  0  0  0  0  0  0
   49.6130   48.8620   19.9970 O   0  0  0  0  0  0  0  0  0  0  0  0
   48.7610   49.2410   17.4680 C   0  0  0  0  0  0  0  0  0  0  0  0
   48.9640   48.8360   16.0070 C   0  0  0  0  0  0  0  0  0  0  0  0
   47.8050   47.9460   15.5590 C   0  0  0  0  0  0  0  0  0  0  0  0
   47.5030   46.9150   16.6490 C   0  0  0  0  0  0  0  0  0  0  0  0
   46.1270   47.2000   17.2540 C   0  0  0  0  0  0  0  0  0  0  0  0
   46.2240   48.4030   18.1940 C   0  0  0  0  0  0  0  0  0  0  0  0
   46.3060   49.6890   17.3700 C   0  0  0  0  0  0  0  0  0  0  0  0
   47.6850   50.3250   17.5520 C   0  0  0  0  0  0  0  0  0  0  0  0
   51.4830   50.3330   21.2820 N   0  0  0  0  0  0  0  0  0  0  0  0
   50.5010   50.3490   21.5110 H   0  0  0  0  0  0  0  0  0  0  0  0
   51.9450   49.6170   21.8240 H   0  0  0  0  0  0  0  0  0  0  0  0
   52.0800   51.6390   21.5920 C   0  0  0  0  0  0  0  0  0  0  0  0
   50.9900   52.7130   21.5780 C   0  0  0  0  0  0  0  0  0  0  0  0
   51.5930   54.1760   20.6910 S   0  0  0  0  0  0  0  0  0  0  0  0
   48.9870   54.0430   18.6690 C   0  0  0  0  0  0  0  0  0  0  0  0
   49.1490   55.0760   19.6950 N   0  0  0  0  0  0  0  0  0  0  0  0
   50.1750   55.2150   20.5670 C   0  0  0  0  0  0  0  0  0  0  0  0
   49.9150   56.2720   21.3050 N   0  0  0  0  0  0  0  0  0  0  0  0
   48.8000   56.8020   20.9550 N   0  0  0  0  0  0  0  0  0  0  0  0
   48.2760   56.1400   19.9810 N   0  0  0  0  0  0  0  0  0  0  0  0
  1 14  1  0  0  0  0
  2  1  1  0  0  0  0
  2  5  2  0  0  0  0
  3  2  1  0  0  0  0
  4  3  1  0  0  0  0
  6 13  1  0  0  0  0
  6  3  1  0  0  0  0
  7  6  1  0  0  0  0
  8  7  1  0  0  0  0
  8  9  1  0  0  0  0
  9 10  1  0  0  0  0
 10 11  1  0  0  0  0
 12 13  1  0  0  0  0
 12 11  1  0  0  0  0
 14 15  1  0  0  0  0
 14 17  1  0  0  0  0
 14 16  1  0  0  0  0
 18 17  1  0  0  0  0
 19 18  1  0  0  0  0
 20 21  1  0  0  0  0
 21 25  1  0  0  0  0
 21 22  1  0  0  0  0
 22 19  1  0  0  0  0
 22 23  2  0  0  0  0
 24 23  1  0  0  0  0
 25 24  2  0  0  0  0
M  END
>  <MODEL>
7

>  <REMARK>
  Name = ZINC65371431
                            x       y       z     vdW  Elec       q    Type
                         _______ _______ _______ _____ _____    ______ ____

>  <TORSDO>
F 7

>  <minimizedAffinity>
-7.4742383255948601

$$$$
ZINC65371431
 OpenBabel10211214163D

 25 26  0  0  0  0  0  0  0  0999 V2000
   49.7300   52.2210   17.8610 C   0  0  0  0  0  0  0  0  0  0  0  0
   48.6790   51.2190   17.4600 C   0  0  0  0  0  0  0  0  0  0  0  0
   48.6230   50.0190   18.0710 N   0  0  0  0  0  0  0  0  0  0  0  0
   49.2610   49.8000   18.7690 H   0  0  0  0  0  0  0  0  0  0  0  0
   47.8820   51.4920   16.5880 O   0  0  0  0  0  0  0  0  0  0  0  0
   47.6000   49.0450   17.6810 C   0  0  0  0  0  0  0  0  0  0  0  0
   47.0010   48.4060   18.9350 C   0  0  0  0  0  0  0  0  0  0  0  0
   45.6910   47.7030   18.5730 C   0  0  0  0  0  0  0  0  0  0  0  0
   44.8660   48.6060   17.6530 C   0  0  0  0  0  0  0  0  0  0  0  0
   44.7740   47.9700   16.2640 C   0  0  0  0  0  0  0  0  0  0  0  0
   46.1010   48.1600   15.5280 C   0  0  0  0  0  0  0  0  0  0  0  0
   47.1370   47.1810   16.0830 C   0  0  0  0  0  0  0  0  0  0  0  0
   48.2360   47.9590   16.8100 C   0  0  0  0  0  0  0  0  0  0  0  0
   49.0950   53.5180   18.1270 N   0  0  0  0  0  0  0  0  0  0  0  0
   49.4280   54.1990   17.4620 H   0  0  0  0  0  0  0  0  0  0  0  0
   48.0930   53.4250   18.0430 H   0  0  0  0  0  0  0  0  0  0  0  0
   49.4310   53.9580   19.4880 C   0  0  0  0  0  0  0  0  0  0  0  0
   50.4100   55.1320   19.4170 C   0  0  0  0  0  0  0  0  0  0  0  0
   51.6140   54.9980   20.7660 S   0  0  0  0  0  0  0  0  0  0  0  0
   53.1130   53.0490   18.5650 C   0  0  0  0  0  0  0  0  0  0  0  0
   52.6260   52.5640   19.8580 N   0  0  0  0  0  0  0  0  0  0  0  0
   52.0020   53.2800   20.8230 C   0  0  0  0  0  0  0  0  0  0  0  0
   51.7400   52.4530   21.8110 N   0  0  0  0  0  0  0  0  0  0  0  0
   52.1560   51.2710   21.5300 N   0  0  0  0  0  0  0  0  0  0  0  0
   52.6990   51.2530   20.3620 N   0  0  0  0  0  0  0  0  0  0  0  0
  1 14  1  0  0  0  0
  2  1  1  0  0  0  0
  2  3  1  0  0  0  0
  3  4  1  0  0  0  0
  5  2  2  0  0  0  0
  6  3  1  0  0  0  0
  6  7  1  0  0  0  0
  8  7  1  0  0  0  0
  9  8  1  0  0  0  0
 10  9  1  0  0  0  0
 11 12  1  0  0  0  0
 11 10  1  0  0  0  0
 12 13  1  0  0  0  0
 13  6  1  0  0  0  0
 14 17  1  0  0  0  0
 15 14  1  0  0  0  0
 16 14  1  0  0  0  0
 18 17  1  0  0  0  0
 18 19  1  0  0  0  0
 19 22  1  0  0  0  0
 20 21  1  0  0  0  0
 21 25  1  0  0  0  0
 21 22  1  0  0  0  0
 22 23  2  0  0  0  0
 24 23  1  0  0  0  0
 25 24  2  0  0  0  0
M  END
>  <MODEL>
8

>  <REMARK>
  Name = ZINC65371431
                            x       y       z     vdW  Elec       q    Type
                         _______ _______ _______ _____ _____    ______ ____

>  <TORSDO>
F 7

>  <minimizedAffinity>
-7.2611129037924096

$$$$
ZINC65371431
 OpenBabel10211214163D

 25 26  0  0  0  0  0  0  0  0999 V2000
   52.4150   51.4630   18.5960 C   0  0  0  0  0  0  0  0  0  0  0  0
   52.1240   52.8470   19.1140 C   0  0  0  0  0  0  0  0  0  0  0  0
   51.5280   53.0070   20.3130 N   0  0  0  0  0  0  0  0  0  0  0  0
   51.2860   52.2300   20.8410 H   0  0  0  0  0  0  0  0  0  0  0  0
   52.4270   53.8180   18.4540 O   0  0  0  0  0  0  0  0  0  0  0  0
   51.2460   54.3530   20.8170 C   0  0  0  0  0  0  0  0  0  0  0  0
   51.5700   54.4170   22.3110 C   0  0  0  0  0  0  0  0  0  0  0  0
   51.6610   55.8790   22.7510 C   0  0  0  0  0  0  0  0  0  0  0  0
   52.4600   56.6740   21.7160 C   0  0  0  0  0  0  0  0  0  0  0  0
   51.5360   57.6750   21.0180 C   0  0  0  0  0  0  0  0  0  0  0  0
   50.6560   56.9350   20.0080 C   0  0  0  0  0  0  0  0  0  0  0  0
   49.5490   56.1850   20.7490 C   0  0  0  0  0  0  0  0  0  0  0  0
   49.7660   54.6780   20.6020 C   0  0  0  0  0  0  0  0  0  0  0  0
   51.5610   51.1860   17.4340 N   0  0  0  0  0  0  0  0  0  0  0  0
   51.5940   51.9670   16.7980 H   0  0  0  0  0  0  0  0  0  0  0  0
   51.8900   50.3550   16.9650 H   0  0  0  0  0  0  0  0  0  0  0  0
   50.1770   50.9770   17.8820 C   0  0  0  0  0  0  0  0  0  0  0  0
   49.2390   51.8800   17.0770 C   0  0  0  0  0  0  0  0  0  0  0  0
   47.6540   51.0340   16.8270 S   0  0  0  0  0  0  0  0  0  0  0  0
   46.9570   48.4490   18.7570 C   0  0  0  0  0  0  0  0  0  0  0  0
   47.7570   48.3390   17.5340 N   0  0  0  0  0  0  0  0  0  0  0  0
   48.0950   49.3340   16.6810 C   0  0  0  0  0  0  0  0  0  0  0  0
   48.8150   48.7940   15.7220 N   0  0  0  0  0  0  0  0  0  0  0  0
   48.9500   47.5320   15.9170 N   0  0  0  0  0  0  0  0  0  0  0  0
   48.3430   47.1790   16.9980 N   0  0  0  0  0  0  0  0  0  0  0  0
  1  2  1  0  0  0  0
  2  3  1  0  0  0  0
  3  6  1  0  0  0  0
  3  4  1  0  0  0  0
  5  2  2  0  0  0  0
  6  7  1  0  0  0  0
  7  8  1  0  0  0  0
  9  8  1  0  0  0  0
 10  9  1  0  0  0  0
 11 12  1  0  0  0  0
 11 10  1  0  0  0  0
 13 12  1  0  0  0  0
 13  6  1  0  0  0  0
 14 17  1  0  0  0  0
 14  1  1  0  0  0  0
 15 14  1  0  0  0  0
 16 14  1  0  0  0  0
 18 17  1  0  0  0  0
 19 18  1  0  0  0  0
 21 20  1  0  0  0  0
 22 19  1  0  0  0  0
 22 21  1  0  0  0  0
 23 24  1  0  0  0  0
 23 22  2  0  0  0  0
 24 25  2  0  0  0  0
 25 21  1  0  0  0  0
M  END
>  <MODEL>
9

>  <REMARK>
  Name = ZINC65371431
                            x       y       z     vdW  Elec       q    Type
                         _______ _______ _______ _____ _____    ______ ____

>  <TORSDO>
F 7

>  <minimizedAffinity>
-7.1171401496647411

$$$$
ZINC43111740
 OpenBabel10211214173D

 30 32  0  0  1  0  0  0  0  0999 V2000
   48.5110   54.9380   18.2790 N   0  0  0  0  0  0  0  0  0  0  0  0
   48.5260   55.8740   18.0240 H   0  0  0  0  0  0  0  0  0  0  0  0
   48.3110   53.9890   17.3430 C   0  0  0  0  0  0  0  0  0  0  0  0
   48.2890   52.6880   17.6960 N   0  0  0  0  0  0  0  0  0  0  0  0
   48.4170   52.4350   18.6240 H   0  0  0  0  0  0  0  0  0  0  0  0
   48.1510   54.3050   16.1810 O   0  0  0  0  0  0  0  0  0  0  0  0
   48.6910   54.5820   19.5860 N   0  0  0  0  0  0  0  0  0  0  0  0
   48.9060   53.5990   19.6650 H   0  0  0  0  0  0  0  0  0  0  0  0
   49.0870   56.6740   20.7700 C   0  0  0  0  0  0  0  0  0  0  0  0
   49.7330   55.4030   20.2150 C   0  0  1  0  0  0  0  0  0  0  0  0
   50.3400   54.6140   21.3750 C   0  0  0  0  0  0  0  0  0  0  0  0
   51.5490   53.7710   20.8800 C   0  0  0  0  0  0  0  0  0  0  0  0
   52.3090   54.9810   19.7090 S   0  0  0  0  0  0  0  0  0  0  0  0
   52.8930   54.2770   18.6230 O   0  0  0  0  0  0  0  0  0  0  0  0
   53.0910   55.9140   20.4430 O   0  0  0  0  0  0  0  0  0  0  0  0
   50.7630   55.8030   19.1390 C   0  0  0  0  0  0  0  0  0  0  0  0
   48.0720   51.6560   16.6790 C   0  0  0  0  0  0  0  0  0  0  0  0
   48.5460   50.3040   17.2160 C   0  0  0  0  0  0  0  0  0  0  0  0
   49.1010   49.4650   16.0640 C   0  0  0  0  0  0  0  0  0  0  0  0
   48.0050   49.2430   15.0190 C   0  0  0  0  0  0  0  0  0  0  0  0
   46.8270   48.5090   15.6650 C   0  0  0  0  0  0  0  0  0  0  0  0
   46.2720   49.3480   16.8170 C   0  0  0  0  0  0  0  0  0  0  0  0
   47.3690   49.5700   17.8600 C   0  0  0  0  0  0  0  0  0  0  0  0
   49.5990   50.5170   18.2180 N   0  0  0  0  0  0  0  0  0  0  0  0
   49.4110   51.3690   18.7260 H   0  0  0  0  0  0  0  0  0  0  0  0
   50.8990   50.6280   17.5440 C   0  0  0  0  0  0  0  0  0  0  0  0
   51.9880   50.9300   18.5750 C   0  0  0  0  0  0  0  0  0  0  0  0
   52.0390   49.7960   19.6030 C   0  0  0  0  0  0  0  0  0  0  0  0
   50.6580   49.6400   20.2470 C   0  0  0  0  0  0  0  0  0  0  0  0
   49.6180   49.3860   19.1540 C   0  0  0  0  0  0  0  0  0  0  0  0
  1  7  1  0  0  0  0
  2  1  1  0  0  0  0
  3  4  1  0  0  0  0
  3  1  1  0  0  0  0
  4  5  1  0  0  0  0
  6  3  2  0  0  0  0
  7  8  1  0  0  0  0
 10  7  1  6  0  0  0
 10  9  1  0  0  0  0
 10 11  1  0  0  0  0
 12 11  1  0  0  0  0
 13 15  2  0  0  0  0
 13 12  1  0  0  0  0
 14 13  2  0  0  0  0
 16 13  1  0  0  0  0
 16 10  1  0  0  0  0
 17 18  1  0  0  0  0
 17  4  1  0  0  0  0
 18 23  1  0  0  0  0
 18 24  1  0  0  0  0
 19 18  1  0  0  0  0
 20 21  1  0  0  0  0
 20 19  1  0  0  0  0
 21 22  1  0  0  0  0
 22 23  1  0  0  0  0
 24 25  1  0  0  0  0
 24 30  1  0  0  0  0
 26 24  1  0  0  0  0
 26 27  1  0  0  0  0
 27 28  1  0  0  0  0
 28 29  1  0  0  0  0
 30 29  1  0  0  0  0
M  END
>  <MODEL>
1

>  <REMARK>
  Name = ZINC43111740
                            x       y       z     vdW  Elec       q    Type
                         _______ _______ _______ _____ _____    ______ ____

>  <TORSDO>
F 5

>  <minimizedAffinity>
-8.2812081157458444

$$$$
ZINC43111740
 OpenBabel10211214173D

 30 32  0  0  1  0  0  0  0  0999 V2000
   48.0670   51.6470   16.0570 N   0  0  0  0  0  0  0  0  0  0  0  0
   47.4500   51.6830   15.3100 H   0  0  0  0  0  0  0  0  0  0  0  0
   48.4440   52.7850   16.6750 C   0  0  0  0  0  0  0  0  0  0  0  0
   49.3010   52.7350   17.7140 N   0  0  0  0  0  0  0  0  0  0  0  0
   49.6480   51.8810   18.0160 H   0  0  0  0  0  0  0  0  0  0  0  0
   48.0090   53.8540   16.2970 O   0  0  0  0  0  0  0  0  0  0  0  0
   48.5560   50.4450   16.4830 N   0  0  0  0  0  0  0  0  0  0  0  0
   48.3760   50.3090   17.4660 H   0  0  0  0  0  0  0  0  0  0  0  0
   47.9950   49.7540   14.2150 C   0  0  0  0  0  0  0  0  0  0  0  0
   48.0020   49.3410   15.6880 C   0  0  1  0  0  0  0  0  0  0  0  0
   48.9070   48.1200   15.8510 C   0  0  0  0  0  0  0  0  0  0  0  0
   48.4370   47.2570   17.0550 C   0  0  0  0  0  0  0  0  0  0  0  0
   46.6070   47.3870   16.8310 S   0  0  0  0  0  0  0  0  0  0  0  0
   45.9790   47.3780   18.1040 O   0  0  0  0  0  0  0  0  0  0  0  0
   46.1920   46.4620   15.8350 O   0  0  0  0  0  0  0  0  0  0  0  0
   46.5480   49.0920   16.1370 C   0  0  0  0  0  0  0  0  0  0  0  0
   49.7100   53.9710   18.3860 C   0  0  0  0  0  0  0  0  0  0  0  0
   50.7590   53.6480   19.4520 C   0  0  0  0  0  0  0  0  0  0  0  0
   50.2370   54.0750   20.8260 C   0  0  0  0  0  0  0  0  0  0  0  0
   49.9610   55.5800   20.8210 C   0  0  0  0  0  0  0  0  0  0  0  0
   51.2560   56.3340   20.5090 C   0  0  0  0  0  0  0  0  0  0  0  0
   51.7770   55.9080   19.1360 C   0  0  0  0  0  0  0  0  0  0  0  0
   52.0520   54.4030   19.1410 C   0  0  0  0  0  0  0  0  0  0  0  0
   51.0240   52.2020   19.4570 N   0  0  0  0  0  0  0  0  0  0  0  0
   50.2980   51.7280   18.9400 H   0  0  0  0  0  0  0  0  0  0  0  0
   51.0350   51.7130   20.8410 C   0  0  0  0  0  0  0  0  0  0  0  0
   51.2290   50.1960   20.8480 C   0  0  0  0  0  0  0  0  0  0  0  0
   52.5610   49.8540   20.1730 C   0  0  0  0  0  0  0  0  0  0  0  0
   52.5670   50.4330   18.7550 C   0  0  0  0  0  0  0  0  0  0  0  0
   52.3230   51.9430   18.8260 C   0  0  0  0  0  0  0  0  0  0  0  0
  1  7  1  0  0  0  0
  1  3  1  0  0  0  0
  2  1  1  0  0  0  0
  3  4  1  0  0  0  0
  4  5  1  0  0  0  0
  4 17  1  0  0  0  0
  6  3  2  0  0  0  0
  7  8  1  0  0  0  0
 10  9  1  6  0  0  0
 10 11  1  0  0  0  0
 10 16  1  0  0  0  0
 10  7  1  0  0  0  0
 11 12  1  0  0  0  0
 13 12  1  0  0  0  0
 13 14  2  0  0  0  0
 15 13  2  0  0  0  0
 16 13  1  0  0  0  0
 17 18  1  0  0  0  0
 18 24  1  0  0  0  0
 18 19  1  0  0  0  0
 20 19  1  0  0  0  0
 21 20  1  0  0  0  0
 22 23  1  0  0  0  0
 22 21  1  0  0  0  0
 23 18  1  0  0  0  0
 24 26  1  0  0  0  0
 25 24  1  0  0  0  0
 26 27  1  0  0  0  0
 28 27  1  0  0  0  0
 29 30  1  0  0  0  0
 29 28  1  0  0  0  0
 30 24  1  0  0  0  0
M  END
>  <MODEL>
2

>  <REMARK>
  Name = ZINC43111740
                            x       y       z     vdW  Elec       q    Type
                         _______ _______ _______ _____ _____    ______ ____

>  <TORSDO>
F 5

>  <minimizedAffinity>
-8.0643382954242284

$$$$
ZINC43111740
 OpenBabel10211214173D

 30 32  0  0  1  0  0  0  0  0999 V2000
   49.8200   53.7420   18.3340 N   0  0  0  0  0  0  0  0  0  0  0  0
   49.5960   54.4610   18.9450 H   0  0  0  0  0  0  0  0  0  0  0  0
   48.8580   53.1800   17.5740 C   0  0  0  0  0  0  0  0  0  0  0  0
   49.1700   52.1820   16.7240 N   0  0  0  0  0  0  0  0  0  0  0  0
   50.0850   51.8670   16.6590 H   0  0  0  0  0  0  0  0  0  0  0  0
   47.7120   53.5740   17.6550 O   0  0  0  0  0  0  0  0  0  0  0  0
   51.1090   53.2990   18.2420 N   0  0  0  0  0  0  0  0  0  0  0  0
   51.6180   53.8120   17.5380 H   0  0  0  0  0  0  0  0  0  0  0  0
   52.4750   52.0400   19.8190 C   0  0  0  0  0  0  0  0  0  0  0  0
   51.7850   53.3780   19.5440 C   0  0  1  0  0  0  0  0  0  0  0  0
   52.8490   54.4730   19.4750 C   0  0  0  0  0  0  0  0  0  0  0  0
   52.2450   55.8390   19.9020 C   0  0  0  0  0  0  0  0  0  0  0  0
   51.1740   55.2790   21.2990 S   0  0  0  0  0  0  0  0  0  0  0  0
   50.0100   56.0920   21.3510 O   0  0  0  0  0  0  0  0  0  0  0  0
   51.9710   55.1160   22.4640 O   0  0  0  0  0  0  0  0  0  0  0  0
   50.7250   53.6200   20.6370 C   0  0  0  0  0  0  0  0  0  0  0  0
   48.1250   51.5700   15.8980 C   0  0  0  0  0  0  0  0  0  0  0  0
   48.1730   50.0490   16.0590 C   0  0  0  0  0  0  0  0  0  0  0  0
   49.5890   49.6230   16.4530 C   0  0  0  0  0  0  0  0  0  0  0  0
   50.5730   50.0530   15.3620 C   0  0  0  0  0  0  0  0  0  0  0  0
   50.1880   49.3870   14.0390 C   0  0  0  0  0  0  0  0  0  0  0  0
   48.7730   49.8130   13.6450 C   0  0  0  0  0  0  0  0  0  0  0  0
   47.7900   49.3840   14.7370 C   0  0  0  0  0  0  0  0  0  0  0  0
   47.2290   49.6370   17.1070 N   0  0  0  0  0  0  0  0  0  0  0  0
   46.9770   50.4400   17.6650 H   0  0  0  0  0  0  0  0  0  0  0  0
   47.8620   48.6280   17.9650 C   0  0  0  0  0  0  0  0  0  0  0  0
   46.9130   48.2550   19.1060 C   0  0  0  0  0  0  0  0  0  0  0  0
   45.6170   47.6880   18.5200 C   0  0  0  0  0  0  0  0  0  0  0  0
   45.0040   48.7210   17.5690 C   0  0  0  0  0  0  0  0  0  0  0  0
   46.0240   49.0770   16.4850 C   0  0  0  0  0  0  0  0  0  0  0  0
  1  2  1  0  0  0  0
  3  6  2  0  0  0  0
  3  1  1  0  0  0  0
  4  3  1  0  0  0  0
  5  4  1  0  0  0  0
  7  1  1  0  0  0  0
  8  7  1  0  0  0  0
 10  7  1  6  0  0  0
 10  9  1  0  0  0  0
 10 16  1  0  0  0  0
 11 10  1  0  0  0  0
 11 12  1  0  0  0  0
 12 13  1  0  0  0  0
 13 14  2  0  0  0  0
 13 15  2  0  0  0  0
 16 13  1  0  0  0  0
 17 18  1  0  0  0  0
 17  4  1  0  0  0  0
 18 19  1  0  0  0  0
 18 24  1  0  0  0  0
 20 19  1  0  0  0  0
 21 20  1  0  0  0  0
 22 21  1  0  0  0  0
 22 23  1  0  0  0  0
 23 18  1  0  0  0  0
 24 25  1  0  0  0  0
 24 26  1  0  0  0  0
 26 27  1  0  0  0  0
 28 27  1  0  0  0  0
 29 28  1  0  0  0  0
 30 24  1  0  0  0  0
 30 29  1  0  0  0  0
M  END
>  <MODEL>
3

>  <REMARK>
  Name = ZINC43111740
                            x       y       z     vdW  Elec       q    Type
                         _______ _______ _______ _____ _____    ______ ____

>  <TORSDO>
F 5

>  <minimizedAffinity>
-7.8278464284758007

$$$$
ZINC43111740
 OpenBabel10211214173D

 30 32  0  0  1  0  0  0  0  0999 V2000
   47.5500   51.8410   16.8880 N   0  0  0  0  0  0  0  0  0  0  0  0
   47.0060   51.7120   16.0950 H   0  0  0  0  0  0  0  0  0  0  0  0
   48.2490   52.9830   17.0470 C   0  0  0  0  0  0  0  0  0  0  0  0
   49.0040   53.1630   18.1490 N   0  0  0  0  0  0  0  0  0  0  0  0
   49.0450   52.4710   18.8270 H   0  0  0  0  0  0  0  0  0  0  0  0
   48.1980   53.8500   16.1970 O   0  0  0  0  0  0  0  0  0  0  0  0
   47.6080   50.8670   17.8440 N   0  0  0  0  0  0  0  0  0  0  0  0
   46.7790   50.8750   18.4190 H   0  0  0  0  0  0  0  0  0  0  0  0
   49.1900   49.5250   16.5660 C   0  0  0  0  0  0  0  0  0  0  0  0
   47.8140   49.5460   17.2360 C   0  0  1  0  0  0  0  0  0  0  0  0
   47.7910   48.4910   18.3420 C   0  0  0  0  0  0  0  0  0  0  0  0
   46.3430   47.9700   18.5600 C   0  0  0  0  0  0  0  0  0  0  0  0
   45.7740   47.8960   16.8040 S   0  0  0  0  0  0  0  0  0  0  0  0
   44.3880   48.2010   16.7480 O   0  0  0  0  0  0  0  0  0  0  0  0
   46.2570   46.7000   16.2070 O   0  0  0  0  0  0  0  0  0  0  0  0
   46.7360   49.3270   16.1550 C   0  0  0  0  0  0  0  0  0  0  0  0
   49.7640   54.4040   18.3210 C   0  0  0  0  0  0  0  0  0  0  0  0
   50.2400   54.5130   19.7720 C   0  0  0  0  0  0  0  0  0  0  0  0
   51.7090   54.9380   19.7950 C   0  0  0  0  0  0  0  0  0  0  0  0
   52.5530   53.8970   19.0580 C   0  0  0  0  0  0  0  0  0  0  0  0
   52.4040   52.5390   19.7470 C   0  0  0  0  0  0  0  0  0  0  0  0
   50.9350   52.1130   19.7230 C   0  0  0  0  0  0  0  0  0  0  0  0
   50.0910   53.1550   20.4600 C   0  0  0  0  0  0  0  0  0  0  0  0
   49.4290   55.5130   20.4800 N   0  0  0  0  0  0  0  0  0  0  0  0
   48.9130   55.0620   21.2210 H   0  0  0  0  0  0  0  0  0  0  0  0
   48.4880   56.1330   19.5390 C   0  0  0  0  0  0  0  0  0  0  0  0
   47.5870   57.1170   20.2870 C   0  0  0  0  0  0  0  0  0  0  0  0
   48.4520   58.2020   20.9360 C   0  0  0  0  0  0  0  0  0  0  0  0
   49.4780   57.5380   21.8590 C   0  0  0  0  0  0  0  0  0  0  0  0
   50.3100   56.5380   21.0520 C   0  0  0  0  0  0  0  0  0  0  0  0
  1  3  1  0  0  0  0
  1  7  1  0  0  0  0
  2  1  1  0  0  0  0
  3  4  1  0  0  0  0
  4 17  1  0  0  0  0
  4  5  1  0  0  0  0
  6  3  2  0  0  0  0
  7  8  1  0  0  0  0
 10  9  1  6  0  0  0
 10  7  1  0  0  0  0
 10 11  1  0  0  0  0
 11 12  1  0  0  0  0
 13 12  1  0  0  0  0
 14 13  2  0  0  0  0
 15 13  2  0  0  0  0
 16 13  1  0  0  0  0
 16 10  1  0  0  0  0
 17 18  1  0  0  0  0
 18 19  1  0  0  0  0
 18 23  1  0  0  0  0
 18 24  1  0  0  0  0
 20 21  1  0  0  0  0
 20 19  1  0  0  0  0
 22 21  1  0  0  0  0
 22 23  1  0  0  0  0
 24 30  1  0  0  0  0
 24 25  1  0  0  0  0
 26 27  1  0  0  0  0
 26 24  1  0  0  0  0
 27 28  1  0  0  0  0
 28 29  1  0  0  0  0
 30 29  1  0  0  0  0
M  END
>  <MODEL>
4

>  <REMARK>
  Name = ZINC43111740
                            x       y       z     vdW  Elec       q    Type
                         _______ _______ _______ _____ _____    ______ ____

>  <TORSDO>
F 5

>  <minimizedAffinity>
-7.5406968562424996

$$$$
ZINC43111740
 OpenBabel10211214173D

 30 32  0  0  1  0  0  0  0  0999 V2000
   49.0860   49.5160   14.8060 N   0  0  0  0  0  0  0  0  0  0  0  0
   49.0760   49.1090   13.9260 H   0  0  0  0  0  0  0  0  0  0  0  0
   50.2490   49.9480   15.3360 C   0  0  0  0  0  0  0  0  0  0  0  0
   50.2630   50.5140   16.5590 N   0  0  0  0  0  0  0  0  0  0  0  0
   49.4370   50.6110   17.0580 H   0  0  0  0  0  0  0  0  0  0  0  0
   51.2830   49.8270   14.7100 O   0  0  0  0  0  0  0  0  0  0  0  0
   47.9230   49.6520   15.5100 N   0  0  0  0  0  0  0  0  0  0  0  0
   47.2120   50.0990   14.9500 H   0  0  0  0  0  0  0  0  0  0  0  0
   48.6780   47.4690   16.2840 C   0  0  0  0  0  0  0  0  0  0  0  0
   47.4590   48.3530   16.0140 C   0  0  1  0  0  0  0  0  0  0  0  0
   46.7160   48.5790   17.3310 C   0  0  0  0  0  0  0  0  0  0  0  0
   45.2040   48.8170   17.0630 C   0  0  0  0  0  0  0  0  0  0  0  0
   44.9320   47.5830   15.7140 S   0  0  0  0  0  0  0  0  0  0  0  0
   43.9570   48.0850   14.8120 O   0  0  0  0  0  0  0  0  0  0  0  0
   44.7630   46.2940   16.2880 O   0  0  0  0  0  0  0  0  0  0  0  0
   46.5950   47.6830   14.9280 C   0  0  0  0  0  0  0  0  0  0  0  0
   51.5260   50.9830   17.1340 C   0  0  0  0  0  0  0  0  0  0  0  0
   51.2610   51.5990   18.5100 C   0  0  0  0  0  0  0  0  0  0  0  0
   52.4700   51.3600   19.4160 C   0  0  0  0  0  0  0  0  0  0  0  0
   52.7050   49.8560   19.5680 C   0  0  0  0  0  0  0  0  0  0  0  0
   51.4660   49.2070   20.1880 C   0  0  0  0  0  0  0  0  0  0  0  0
   50.2570   49.4450   19.2810 C   0  0  0  0  0  0  0  0  0  0  0  0
   50.0230   50.9500   19.1300 C   0  0  0  0  0  0  0  0  0  0  0  0
   51.0360   53.0440   18.3650 N   0  0  0  0  0  0  0  0  0  0  0  0
   51.2500   53.3220   17.4180 H   0  0  0  0  0  0  0  0  0  0  0  0
   51.9100   53.7700   19.2950 C   0  0  0  0  0  0  0  0  0  0  0  0
   51.7390   55.2760   19.0900 C   0  0  0  0  0  0  0  0  0  0  0  0
   50.2800   55.6590   19.3540 C   0  0  0  0  0  0  0  0  0  0  0  0
   49.3720   54.8420   18.4300 C   0  0  0  0  0  0  0  0  0  0  0  0
   49.6310   53.3500   18.6580 C   0  0  0  0  0  0  0  0  0  0  0  0
  1  3  1  0  0  0  0
  1  7  1  0  0  0  0
  2  1  1  0  0  0  0
  3  4  1  0  0  0  0
  4  5  1  0  0  0  0
  4 17  1  0  0  0  0
  6  3  2  0  0  0  0
  8  7  1  0  0  0  0
 10  7  1  6  0  0  0
 10  9  1  0  0  0  0
 10 11  1  0  0  0  0
 12 11  1  0  0  0  0
 13 15  2  0  0  0  0
 13 12  1  0  0  0  0
 14 13  2  0  0  0  0
 16 13  1  0  0  0  0
 16 10  1  0  0  0  0
 17 18  1  0  0  0  0
 18 23  1  0  0  0  0
 18 19  1  0  0  0  0
 19 20  1  0  0  0  0
 20 21  1  0  0  0  0
 22 21  1  0  0  0  0
 23 22  1  0  0  0  0
 24 18  1  0  0  0  0
 24 30  1  0  0  0  0
 24 26  1  0  0  0  0
 25 24  1  0  0  0  0
 27 26  1  0  0  0  0
 27 28  1  0  0  0  0
 29 30  1  0  0  0  0
 29 28  1  0  0  0  0
M  END
>  <MODEL>
5

>  <REMARK>
  Name = ZINC43111740
                            x       y       z     vdW  Elec       q    Type
                         _______ _______ _______ _____ _____    ______ ____

>  <TORSDO>
F 5

>  <minimizedAffinity>
-7.4392952467192748

$$$$
ZINC43111740
 OpenBabel10211214173D

 30 32  0  0  1  0  0  0  0  0999 V2000
   52.0330   52.7150   21.6010 N   0  0  0  0  0  0  0  0  0  0  0  0
   51.8890   51.8950   22.0990 H   0  0  0  0  0  0  0  0  0  0  0  0
   51.7050   53.9030   22.1490 C   0  0  0  0  0  0  0  0  0  0  0  0
   51.9050   55.0420   21.4570 N   0  0  0  0  0  0  0  0  0  0  0  0
   52.2840   55.0080   20.5650 H   0  0  0  0  0  0  0  0  0  0  0  0
   51.2310   53.9460   23.2670 O   0  0  0  0  0  0  0  0  0  0  0  0
   52.5660   52.6670   20.3440 N   0  0  0  0  0  0  0  0  0  0  0  0
   53.4920   52.2660   20.3600 H   0  0  0  0  0  0  0  0  0  0  0  0
   51.1660   52.8970   18.3640 C   0  0  0  0  0  0  0  0  0  0  0  0
   51.6870   51.9290   19.4280 C   0  0  1  0  0  0  0  0  0  0  0  0
   52.5060   50.8380   18.7390 C   0  0  0  0  0  0  0  0  0  0  0  0
   52.4570   49.5230   19.5660 C   0  0  0  0  0  0  0  0  0  0  0  0
   50.6860   49.5580   20.0930 S   0  0  0  0  0  0  0  0  0  0  0  0
   50.5710   48.9780   21.3840 O   0  0  0  0  0  0  0  0  0  0  0  0
   49.8730   49.0770   19.0300 O   0  0  0  0  0  0  0  0  0  0  0  0
   50.4870   51.3840   20.2280 C   0  0  0  0  0  0  0  0  0  0  0  0
   51.5490   56.3320   22.0530 C   0  0  0  0  0  0  0  0  0  0  0  0
   51.5680   57.4150   20.9710 C   0  0  0  0  0  0  0  0  0  0  0  0
   52.4420   56.9530   19.8040 C   0  0  0  0  0  0  0  0  0  0  0  0
   53.8670   56.7020   20.3000 C   0  0  0  0  0  0  0  0  0  0  0  0
   54.4380   57.9960   20.8840 C   0  0  0  0  0  0  0  0  0  0  0  0
   53.5650   58.4580   22.0520 C   0  0  0  0  0  0  0  0  0  0  0  0
   52.1400   58.7080   21.5550 C   0  0  0  0  0  0  0  0  0  0  0  0
   50.1990   57.6550   20.4930 N   0  0  0  0  0  0  0  0  0  0  0  0
   50.1710   58.5250   19.9830 H   0  0  0  0  0  0  0  0  0  0  0  0
   49.2890   57.7340   21.6420 C   0  0  0  0  0  0  0  0  0  0  0  0
   47.8770   58.0640   21.1560 C   0  0  0  0  0  0  0  0  0  0  0  0
   47.4010   56.9660   20.2000 C   0  0  0  0  0  0  0  0  0  0  0  0
   48.3990   56.8410   19.0450 C   0  0  0  0  0  0  0  0  0  0  0  0
   49.7930   56.5570   19.6090 C   0  0  0  0  0  0  0  0  0  0  0  0
  1  2  1  0  0  0  0
  1  3  1  0  0  0  0
  3  6  2  0  0  0  0
  4 17  1  0  0  0  0
  4  3  1  0  0  0  0
  5  4  1  0  0  0  0
  7  8  1  0  0  0  0
  7  1  1  0  0  0  0
 10  9  1  6  0  0  0
 10 16  1  0  0  0  0
 10  7  1  0  0  0  0
 11 10  1  0  0  0  0
 11 12  1  0  0  0  0
 12 13  1  0  0  0  0
 13 16  1  0  0  0  0
 13 14  2  0  0  0  0
 15 13  2  0  0  0  0
 18 23  1  0  0  0  0
 18 17  1  0  0  0  0
 19 20  1  0  0  0  0
 19 18  1  0  0  0  0
 20 21  1  0  0  0  0
 21 22  1  0  0  0  0
 23 22  1  0  0  0  0
 24 18  1  0  0  0  0
 24 26  1  0  0  0  0
 25 24  1  0  0  0  0
 27 26  1  0  0  0  0
 28 27  1  0  0  0  0
 29 30  1  0  0  0  0
 29 28  1  0  0  0  0
 30 24  1  0  0  0  0
M  END
>  <MODEL>
6

>  <REMARK>
  Name = ZINC43111740
                            x       y       z     vdW  Elec       q    Type
                         _______ _______ _______ _____ _____    ______ ____

>  <TORSDO>
F 5

>  <minimizedAffinity>
-7.3987489063543226

$$$$
ZINC43111740
 OpenBabel10211214173D

 30 32  0  0  1  0  0  0  0  0999 V2000
   49.7040   52.9070   17.4240 N   0  0  0  0  0  0  0  0  0  0  0  0
   49.4440   52.5420   16.5630 H   0  0  0  0  0  0  0  0  0  0  0  0
   48.9170   53.8150   18.0360 C   0  0  0  0  0  0  0  0  0  0  0  0
   49.2760   54.3210   19.2320 N   0  0  0  0  0  0  0  0  0  0  0  0
   50.1010   54.0320   19.6530 H   0  0  0  0  0  0  0  0  0  0  0  0
   47.8830   54.1760   17.5090 O   0  0  0  0  0  0  0  0  0  0  0  0
   50.8660   52.5010   18.0170 N   0  0  0  0  0  0  0  0  0  0  0  0
   50.9690   52.9150   18.9310 H   0  0  0  0  0  0  0  0  0  0  0  0
   50.4960   50.4550   16.7450 C   0  0  0  0  0  0  0  0  0  0  0  0
   50.9320   51.0350   18.0920 C   0  0  1  0  0  0  0  0  0  0  0  0
   52.3810   50.6260   18.3560 C   0  0  0  0  0  0  0  0  0  0  0  0
   52.6480   50.5420   19.8850 C   0  0  0  0  0  0  0  0  0  0  0  0
   51.0560   49.7820   20.4340 S   0  0  0  0  0  0  0  0  0  0  0  0
   50.7200   50.2790   21.7210 O   0  0  0  0  0  0  0  0  0  0  0  0
   51.1080   48.3790   20.2130 O   0  0  0  0  0  0  0  0  0  0  0  0
   49.9500   50.5520   19.1780 C   0  0  0  0  0  0  0  0  0  0  0  0
   48.4210   55.3080   19.8970 C   0  0  0  0  0  0  0  0  0  0  0  0
   49.2150   56.5960   20.1270 C   0  0  0  0  0  0  0  0  0  0  0  0
   48.4710   57.4790   21.1300 C   0  0  0  0  0  0  0  0  0  0  0  0
   47.0870   57.8250   20.5780 C   0  0  0  0  0  0  0  0  0  0  0  0
   47.2400   58.5740   19.2520 C   0  0  0  0  0  0  0  0  0  0  0  0
   47.9830   57.6900   18.2490 C   0  0  0  0  0  0  0  0  0  0  0  0
   49.3670   57.3450   18.8030 C   0  0  0  0  0  0  0  0  0  0  0  0
   50.5440   56.2640   20.6590 N   0  0  0  0  0  0  0  0  0  0  0  0
   50.7000   55.2710   20.5740 H   0  0  0  0  0  0  0  0  0  0  0  0
   50.6130   56.6480   22.0740 C   0  0  0  0  0  0  0  0  0  0  0  0
   51.9660   56.2310   22.6530 C   0  0  0  0  0  0  0  0  0  0  0  0
   53.0860   56.9310   21.8780 C   0  0  0  0  0  0  0  0  0  0  0  0
   52.9590   56.5830   20.3920 C   0  0  0  0  0  0  0  0  0  0  0  0
   51.5680   56.9870   19.8960 C   0  0  0  0  0  0  0  0  0  0  0  0
  1  7  1  0  0  0  0
  1  3  1  0  0  0  0
  2  1  1  0  0  0  0
  3  4  1  0  0  0  0
  4  5  1  0  0  0  0
  4 17  1  0  0  0  0
  6  3  2  0  0  0  0
  7 10  1  0  0  0  0
  7  8  1  0  0  0  0
 10  9  1  6  0  0  0
 10 11  1  0  0  0  0
 10 16  1  0  0  0  0
 11 12  1  0  0  0  0
 12 13  1  0  0  0  0
 13 14  2  0  0  0  0
 15 13  2  0  0  0  0
 16 13  1  0  0  0  0
 17 18  1  0  0  0  0
 18 24  1  0  0  0  0
 18 19  1  0  0  0  0
 20 19  1  0  0  0  0
 21 20  1  0  0  0  0
 22 23  1  0  0  0  0
 22 21  1  0  0  0  0
 23 18  1  0  0  0  0
 24 26  1  0  0  0  0
 25 24  1  0  0  0  0
 26 27  1  0  0  0  0
 28 27  1  0  0  0  0
 29 28  1  0  0  0  0
 30 29  1  0  0  0  0
 30 24  1  0  0  0  0
M  END
>  <MODEL>
7

>  <REMARK>
  Name = ZINC43111740
                            x       y       z     vdW  Elec       q    Type
                         _______ _______ _______ _____ _____    ______ ____

>  <TORSDO>
F 5

>  <minimizedAffinity>
-7.2882916252796006

$$$$
ZINC43111740
 OpenBabel10211214173D

 30 32  0  0  1  0  0  0  0  0999 V2000
   49.0530   56.1600   19.5340 N   0  0  0  0  0  0  0  0  0  0  0  0
   48.6500   57.0130   19.3090 H   0  0  0  0  0  0  0  0  0  0  0  0
   49.1820   55.2060   18.5890 C   0  0  0  0  0  0  0  0  0  0  0  0
   49.7420   54.0210   18.9000 N   0  0  0  0  0  0  0  0  0  0  0  0
   50.0520   53.8530   19.8040 H   0  0  0  0  0  0  0  0  0  0  0  0
   48.7940   55.4160   17.4570 O   0  0  0  0  0  0  0  0  0  0  0  0
   49.4900   55.9230   20.8060 N   0  0  0  0  0  0  0  0  0  0  0  0
   50.1360   55.1480   20.8280 H   0  0  0  0  0  0  0  0  0  0  0  0
   48.9780   58.1170   21.7350 C   0  0  0  0  0  0  0  0  0  0  0  0
   50.0940   57.1300   21.3870 C   0  0  1  0  0  0  0  0  0  0  0  0
   50.8220   56.7400   22.6730 C   0  0  0  0  0  0  0  0  0  0  0  0
   52.2980   56.3620   22.3650 C   0  0  0  0  0  0  0  0  0  0  0  0
   52.6860   57.6480   21.0960 S   0  0  0  0  0  0  0  0  0  0  0  0
   53.5930   57.1080   20.1460 O   0  0  0  0  0  0  0  0  0  0  0  0
   52.9960   58.8710   21.7500 O   0  0  0  0  0  0  0  0  0  0  0  0
   51.0140   57.7770   20.3330 C   0  0  0  0  0  0  0  0  0  0  0  0
   49.8820   52.9850   17.8740 C   0  0  0  0  0  0  0  0  0  0  0  0
   50.0280   51.6180   18.5460 C   0  0  0  0  0  0  0  0  0  0  0  0
   50.4380   51.8100   20.0070 C   0  0  0  0  0  0  0  0  0  0  0  0
   51.7740   52.5540   20.0690 C   0  0  0  0  0  0  0  0  0  0  0  0
   52.8450   51.7390   19.3400 C   0  0  0  0  0  0  0  0  0  0  0  0
   52.4350   51.5470   17.8790 C   0  0  0  0  0  0  0  0  0  0  0  0
   51.0990   50.8030   17.8190 C   0  0  0  0  0  0  0  0  0  0  0  0
   48.7450   50.9040   18.4880 N   0  0  0  0  0  0  0  0  0  0  0  0
   48.1270   51.2670   19.1990 H   0  0  0  0  0  0  0  0  0  0  0  0
   48.9720   49.4730   18.7250 C   0  0  0  0  0  0  0  0  0  0  0  0
   47.6310   48.7370   18.7460 C   0  0  0  0  0  0  0  0  0  0  0  0
   46.9280   48.9280   17.3980 C   0  0  0  0  0  0  0  0  0  0  0  0
   46.7640   50.4270   17.1280 C   0  0  0  0  0  0  0  0  0  0  0  0
   48.1370   51.1010   17.1670 C   0  0  0  0  0  0  0  0  0  0  0  0
  1  7  1  0  0  0  0
  2  1  1  0  0  0  0
  3  4  1  0  0  0  0
  3  1  1  0  0  0  0
  4  5  1  0  0  0  0
  6  3  2  0  0  0  0
  7  8  1  0  0  0  0
 10  7  1  6  0  0  0
 10  9  1  0  0  0  0
 10 11  1  0  0  0  0
 12 11  1  0  0  0  0
 13 15  2  0  0  0  0
 13 12  1  0  0  0  0
 14 13  2  0  0  0  0
 16 13  1  0  0  0  0
 16 10  1  0  0  0  0
 17 18  1  0  0  0  0
 17  4  1  0  0  0  0
 18 19  1  0  0  0  0
 19 20  1  0  0  0  0
 21 20  1  0  0  0  0
 22 21  1  0  0  0  0
 23 22  1  0  0  0  0
 23 18  1  0  0  0  0
 24 18  1  0  0  0  0
 24 26  1  0  0  0  0
 24 25  1  0  0  0  0
 26 27  1  0  0  0  0
 28 27  1  0  0  0  0
 29 30  1  0  0  0  0
 29 28  1  0  0  0  0
 30 24  1  0  0  0  0
M  END
>  <MODEL>
8

>  <REMARK>
  Name = ZINC43111740
                            x       y       z     vdW  Elec       q    Type
                         _______ _______ _______ _____ _____    ______ ____

>  <TORSDO>
F 5

>  <minimizedAffinity>
-7.2750475838026833

$$$$
ZINC43111740
 OpenBabel10211214173D

 30 32  0  0  1  0  0  0  0  0999 V2000
   51.7950   52.4300   22.3620 N   0  0  0  0  0  0  0  0  0  0  0  0
   51.4990   51.7220   22.9560 H   0  0  0  0  0  0  0  0  0  0  0  0
   51.6410   53.7200   22.7210 C   0  0  0  0  0  0  0  0  0  0  0  0
   52.0520   54.7030   21.8960 N   0  0  0  0  0  0  0  0  0  0  0  0
   52.4590   54.4820   21.0430 H   0  0  0  0  0  0  0  0  0  0  0  0
   51.1320   53.9970   23.7890 O   0  0  0  0  0  0  0  0  0  0  0  0
   52.3690   52.1190   21.1610 N   0  0  0  0  0  0  0  0  0  0  0  0
   53.2480   51.6430   21.2930 H   0  0  0  0  0  0  0  0  0  0  0  0
   50.6500   50.3940   21.2490 C   0  0  0  0  0  0  0  0  0  0  0  0
   51.4550   51.3200   20.3340 C   0  0  1  0  0  0  0  0  0  0  0  0
   50.4890   52.2660   19.6210 C   0  0  0  0  0  0  0  0  0  0  0  0
   51.0730   52.6980   18.2470 C   0  0  0  0  0  0  0  0  0  0  0  0
   51.8150   51.0940   17.7100 S   0  0  0  0  0  0  0  0  0  0  0  0
   52.9890   51.3520   16.9540 O   0  0  0  0  0  0  0  0  0  0  0  0
   50.7950   50.2670   17.1660 O   0  0  0  0  0  0  0  0  0  0  0  0
   52.2910   50.4550   19.3700 C   0  0  0  0  0  0  0  0  0  0  0  0
   51.8840   56.1050   22.2860 C   0  0  0  0  0  0  0  0  0  0  0  0
   51.5140   56.9360   21.0550 C   0  0  0  0  0  0  0  0  0  0  0  0
   52.4840   56.6170   19.9160 C   0  0  0  0  0  0  0  0  0  0  0  0
   53.9110   56.9570   20.3500 C   0  0  0  0  0  0  0  0  0  0  0  0
   53.9980   58.4450   20.6940 C   0  0  0  0  0  0  0  0  0  0  0  0
   53.0290   58.7640   21.8340 C   0  0  0  0  0  0  0  0  0  0  0  0
   51.6020   58.4230   21.3980 C   0  0  0  0  0  0  0  0  0  0  0  0
   50.1440   56.6080   20.6370 N   0  0  0  0  0  0  0  0  0  0  0  0
   49.8070   55.8250   21.1770 H   0  0  0  0  0  0  0  0  0  0  0  0
   50.1400   56.2560   19.2120 C   0  0  0  0  0  0  0  0  0  0  0  0
   48.7300   55.8360   18.7910 C   0  0  0  0  0  0  0  0  0  0  0  0
   47.7630   56.9990   19.0330 C   0  0  0  0  0  0  0  0  0  0  0  0
   47.8310   57.4070   20.5080 C   0  0  0  0  0  0  0  0  0  0  0  0
   49.2750   57.7690   20.8660 C   0  0  0  0  0  0  0  0  0  0  0  0
  1  3  1  0  0  0  0
  1  2  1  0  0  0  0
  3  6  2  0  0  0  0
  4 17  1  0  0  0  0
  4  3  1  0  0  0  0
  5  4  1  0  0  0  0
  7  8  1  0  0  0  0
  7  1  1  0  0  0  0
 10  7  1  1  0  0  0
 10  9  1  0  0  0  0
 11 10  1  0  0  0  0
 12 11  1  0  0  0  0
 13 12  1  0  0  0  0
 13 16  1  0  0  0  0
 14 13  2  0  0  0  0
 15 13  2  0  0  0  0
 16 10  1  0  0  0  0
 18 23  1  0  0  0  0
 18 17  1  0  0  0  0
 19 20  1  0  0  0  0
 19 18  1  0  0  0  0
 20 21  1  0  0  0  0
 21 22  1  0  0  0  0
 23 22  1  0  0  0  0
 24 30  1  0  0  0  0
 24 18  1  0  0  0  0
 24 25  1  0  0  0  0
 26 24  1  0  0  0  0
 27 28  1  0  0  0  0
 27 26  1  0  0  0  0
 28 29  1  0  0  0  0
 29 30  1  0  0  0  0
M  END
>  <MODEL>
9

>  <REMARK>
  Name = ZINC43111740
                            x       y       z     vdW  Elec       q    Type
                         _______ _______ _______ _____ _____    ______ ____

>  <TORSDO>
F 5

>  <minimizedAffinity>
-7.2525218374061868

$$$$
ZINC67272178
 OpenBabel10211214193D

 30 32  0  0  1  0  0  0  0  0999 V2000
   50.7760   51.6920   18.2860 N   0  0  0  0  0  0  0  0  0  0  0  0
   50.5230   52.5780   17.9840 H   0  0  0  0  0  0  0  0  0  0  0  0
   51.5580   51.5460   19.3740 C   0  0  0  0  0  0  0  0  0  0  0  0
   51.8750   50.4380   19.7500 O   0  0  0  0  0  0  0  0  0  0  0  0
   52.0410   52.7620   20.1220 C   0  0  1  0  0  0  0  0  0  0  0  0
   51.8800   54.0010   19.2390 C   0  0  0  0  0  0  0  0  0  0  0  0
   52.3800   55.2340   19.9950 C   0  0  0  0  0  0  0  0  0  0  0  0
   51.5810   55.4000   21.2840 C   0  0  2  0  0  0  0  0  0  0  0  0
   52.0350   56.6330   22.0310 C   0  0  0  0  0  0  0  0  0  0  0  0
   50.9520   57.4350   22.0950 N   0  0  0  0  0  0  0  0  0  0  0  0
   50.9420   58.3060   22.5230 H   0  0  0  0  0  0  0  0  0  0  0  0
   49.8920   56.8800   21.4960 C   0  0  0  0  0  0  0  0  0  0  0  0
   48.8000   57.4110   21.4240 O   0  0  0  0  0  0  0  0  0  0  0  0
   53.1400   56.8550   22.4790 O   0  0  0  0  0  0  0  0  0  0  0  0
   51.7150   54.1630   22.1650 C   0  0  0  0  0  0  0  0  0  0  0  0
   50.1690   55.6660   20.9820 N   0  0  0  0  0  0  0  0  0  0  0  0
   49.5570   55.0840   20.5060 H   0  0  0  0  0  0  0  0  0  0  0  0
   51.2170   52.9340   21.4000 C   0  0  0  0  0  0  0  0  0  0  0  0
   50.3080   50.5100   17.5580 C   0  0  0  0  0  0  0  0  0  0  0  0
   48.0290   50.2610   16.7000 N   0  0  0  0  0  0  0  0  0  0  0  0
   48.3240   49.5200   16.0810 H   0  0  0  0  0  0  0  0  0  0  0  0
   46.6150   50.0720   17.0450 C   0  0  0  0  0  0  0  0  0  0  0  0
   46.4190   48.6900   17.6730 C   0  0  0  0  0  0  0  0  0  0  0  0
   47.2740   48.5860   18.9400 C   0  0  0  0  0  0  0  0  0  0  0  0
   48.7380   48.8590   18.5810 C   0  0  0  0  0  0  0  0  0  0  0  0
   48.8470   50.2340   17.9190 C   0  0  1  0  0  0  0  0  0  0  0  0
   48.1990   51.5550   16.0270 C   0  0  0  0  0  0  0  0  0  0  0  0
   47.4050   52.6270   16.7750 C   0  0  0  0  0  0  0  0  0  0  0  0
   48.4290   54.2410   18.3850 C   0  0  0  0  0  0  0  0  0  0  0  0
   48.2530   53.8940   16.9060 C   0  0  0  0  0  0  0  0  0  0  0  0
  1  3  1  0  0  0  0
  2  1  1  0  0  0  0
  3  4  2  0  0  0  0
  5  3  1  6  0  0  0
  5 18  1  0  0  0  0
  6  7  1  0  0  0  0
  6  5  1  0  0  0  0
  8  7  1  6  0  0  0
  8  9  1  0  0  0  0
  8 15  1  0  0  0  0
  9 10  1  0  0  0  0
  9 14  2  0  0  0  0
 10 11  1  0  0  0  0
 12 10  1  0  0  0  0
 13 12  2  0  0  0  0
 16  8  1  0  0  0  0
 16 12  1  0  0  0  0
 17 16  1  0  0  0  0
 18 15  1  0  0  0  0
 19  1  1  0  0  0  0
 20 22  1  0  0  0  0
 20 26  1  0  0  0  0
 21 20  1  0  0  0  0
 22 23  1  0  0  0  0
 23 24  1  0  0  0  0
 25 24  1  0  0  0  0
 26 19  1  6  0  0  0
 26 25  1  0  0  0  0
 27 20  1  0  0  0  0
 27 28  1  0  0  0  0
 28 30  1  0  0  0  0
 30 29  1  0  0  0  0
M  END
>  <MODEL>
1

>  <REMARK>
  Name = ZINC67272178
                            x       y       z     vdW  Elec       q    Type
                         _______ _______ _______ _____ _____    ______ ____

>  <TORSDO>
F 6

>  <minimizedAffinity>
-9.0355858341896909

$$$$
ZINC67272178
 OpenBabel10211214193D

 30 32  0  0  1  0  0  0  0  0999 V2000
   49.4540   51.9250   17.7090 N   0  0  0  0  0  0  0  0  0  0  0  0
   48.6040   52.2750   18.0190 H   0  0  0  0  0  0  0  0  0  0  0  0
   49.4890   50.8140   16.9470 C   0  0  0  0  0  0  0  0  0  0  0  0
   50.5530   50.3760   16.5610 O   0  0  0  0  0  0  0  0  0  0  0  0
   48.2080   50.1140   16.5750 C   0  0  1  0  0  0  0  0  0  0  0  0
   48.3780   48.6050   16.7670 C   0  0  0  0  0  0  0  0  0  0  0  0
   47.0790   47.8930   16.3790 C   0  0  0  0  0  0  0  0  0  0  0  0
   45.9370   48.4080   17.2480 C   0  0  2  0  0  0  0  0  0  0  0  0
   44.6500   47.6930   16.9070 C   0  0  0  0  0  0  0  0  0  0  0  0
   44.2790   47.0580   18.0370 N   0  0  0  0  0  0  0  0  0  0  0  0
   43.4800   46.5130   18.1200 H   0  0  0  0  0  0  0  0  0  0  0  0
   45.1480   47.2740   19.0320 C   0  0  0  0  0  0  0  0  0  0  0  0
   45.0270   46.8080   20.1480 O   0  0  0  0  0  0  0  0  0  0  0  0
   44.0730   47.6910   15.8400 O   0  0  0  0  0  0  0  0  0  0  0  0
   45.7700   49.9140   17.0840 C   0  0  0  0  0  0  0  0  0  0  0  0
   46.1700   48.0680   18.6580 N   0  0  0  0  0  0  0  0  0  0  0  0
   46.9130   48.3560   19.2090 H   0  0  0  0  0  0  0  0  0  0  0  0
   47.0730   50.6190   17.4690 C   0  0  0  0  0  0  0  0  0  0  0  0
   50.7000   52.6050   18.0710 C   0  0  0  0  0  0  0  0  0  0  0  0
   51.9330   52.8790   20.1670 N   0  0  0  0  0  0  0  0  0  0  0  0
   52.6170   53.4620   19.7090 H   0  0  0  0  0  0  0  0  0  0  0  0
   51.8510   53.2470   21.5860 C   0  0  0  0  0  0  0  0  0  0  0  0
   51.5100   54.7340   21.7120 C   0  0  0  0  0  0  0  0  0  0  0  0
   50.1640   55.0020   21.0350 C   0  0  0  0  0  0  0  0  0  0  0  0
   50.2370   54.5450   19.5740 C   0  0  0  0  0  0  0  0  0  0  0  0
   50.6250   53.0660   19.5280 C   0  0  1  0  0  0  0  0  0  0  0  0
   52.3360   51.4720   20.0500 C   0  0  0  0  0  0  0  0  0  0  0  0
   51.4240   50.6060   20.9200 C   0  0  0  0  0  0  0  0  0  0  0  0
   49.7300   49.0030   20.0220 C   0  0  0  0  0  0  0  0  0  0  0  0
   51.2230   49.2440   20.2520 C   0  0  0  0  0  0  0  0  0  0  0  0
  1  2  1  0  0  0  0
  1 19  1  0  0  0  0
  3  1  1  0  0  0  0
  4  3  2  0  0  0  0
  5  6  1  0  0  0  0
  5  3  1  1  0  0  0
  5 18  1  0  0  0  0
  7  6  1  0  0  0  0
  8  7  1  6  0  0  0
  8 16  1  0  0  0  0
  9  8  1  0  0  0  0
  9 10  1  0  0  0  0
 10 11  1  0  0  0  0
 10 12  1  0  0  0  0
 12 13  2  0  0  0  0
 14  9  2  0  0  0  0
 15  8  1  0  0  0  0
 15 18  1  0  0  0  0
 16 12  1  0  0  0  0
 16 17  1  0  0  0  0
 20 22  1  0  0  0  0
 21 20  1  0  0  0  0
 22 23  1  0  0  0  0
 24 23  1  0  0  0  0
 25 24  1  0  0  0  0
 26 19  1  6  0  0  0
 26 25  1  0  0  0  0
 26 20  1  0  0  0  0
 27 20  1  0  0  0  0
 27 28  1  0  0  0  0
 29 30  1  0  0  0  0
 30 28  1  0  0  0  0
M  END
>  <MODEL>
2

>  <REMARK>
  Name = ZINC67272178
                            x       y       z     vdW  Elec       q    Type
                         _______ _______ _______ _____ _____    ______ ____

>  <TORSDO>
F 6

>  <minimizedAffinity>
-8.5863862087137175

$$$$
ZINC67272178
 OpenBabel10211214193D

 30 32  0  0  1  0  0  0  0  0999 V2000
   49.9620   50.7520   19.0480 N   0  0  0  0  0  0  0  0  0  0  0  0
   49.8720   51.4820   18.4150 H   0  0  0  0  0  0  0  0  0  0  0  0
   50.7100   50.9100   20.1580 C   0  0  0  0  0  0  0  0  0  0  0  0
   50.8250   49.9970   20.9480 O   0  0  0  0  0  0  0  0  0  0  0  0
   51.4050   52.2220   20.4170 C   0  0  1  0  0  0  0  0  0  0  0  0
   51.0520   53.2140   19.3060 C   0  0  0  0  0  0  0  0  0  0  0  0
   51.7670   54.5430   19.5640 C   0  0  0  0  0  0  0  0  0  0  0  0
   51.3390   55.0970   20.9190 C   0  0  2  0  0  0  0  0  0  0  0  0
   52.0060   56.4270   21.1800 C   0  0  0  0  0  0  0  0  0  0  0  0
   51.0010   57.3190   21.2960 N   0  0  0  0  0  0  0  0  0  0  0  0
   51.1280   58.2650   21.4680 H   0  0  0  0  0  0  0  0  0  0  0  0
   49.8060   56.7360   21.1440 C   0  0  0  0  0  0  0  0  0  0  0  0
   48.7490   57.3330   21.2070 O   0  0  0  0  0  0  0  0  0  0  0  0
   53.1960   56.6470   21.2670 O   0  0  0  0  0  0  0  0  0  0  0  0
   51.6660   54.1090   22.0330 C   0  0  0  0  0  0  0  0  0  0  0  0
   49.9050   55.4120   20.9160 N   0  0  0  0  0  0  0  0  0  0  0  0
   49.1740   54.7900   20.7760 H   0  0  0  0  0  0  0  0  0  0  0  0
   50.9520   52.7810   21.7670 C   0  0  0  0  0  0  0  0  0  0  0  0
   49.2870   49.4770   18.7950 C   0  0  0  0  0  0  0  0  0  0  0  0
   47.7300   49.5200   16.9080 N   0  0  0  0  0  0  0  0  0  0  0  0
   47.4930   50.4820   17.1020 H   0  0  0  0  0  0  0  0  0  0  0  0
   47.5490   49.2540   15.4760 C   0  0  0  0  0  0  0  0  0  0  0  0
   48.4020   50.2290   14.6600 C   0  0  0  0  0  0  0  0  0  0  0  0
   49.8750   50.0430   15.0330 C   0  0  0  0  0  0  0  0  0  0  0  0
   50.0410   50.2490   16.5430 C   0  0  0  0  0  0  0  0  0  0  0  0
   49.1260   49.2740   17.2870 C   0  0  1  0  0  0  0  0  0  0  0  0
   46.8510   48.6360   17.6840 C   0  0  0  0  0  0  0  0  0  0  0  0
   45.3980   49.0830   17.5130 C   0  0  0  0  0  0  0  0  0  0  0  0
   45.1030   47.2670   19.2040 C   0  0  0  0  0  0  0  0  0  0  0  0
   44.4610   47.9810   18.0130 C   0  0  0  0  0  0  0  0  0  0  0  0
  1  3  1  0  0  0  0
  2  1  1  0  0  0  0
  3  4  2  0  0  0  0
  5  3  1  6  0  0  0
  5 18  1  0  0  0  0
  6  7  1  0  0  0  0
  6  5  1  0  0  0  0
  8  7  1  6  0  0  0
  8  9  1  0  0  0  0
  8 15  1  0  0  0  0
  9 14  2  0  0  0  0
  9 10  1  0  0  0  0
 10 11  1  0  0  0  0
 12 13  2  0  0  0  0
 12 10  1  0  0  0  0
 16  8  1  0  0  0  0
 16 12  1  0  0  0  0
 17 16  1  0  0  0  0
 18 15  1  0  0  0  0
 19  1  1  0  0  0  0
 20 21  1  0  0  0  0
 20 26  1  0  0  0  0
 20 27  1  0  0  0  0
 22 20  1  0  0  0  0
 23 24  1  0  0  0  0
 23 22  1  0  0  0  0
 24 25  1  0  0  0  0
 25 26  1  0  0  0  0
 26 19  1  1  0  0  0
 28 27  1  0  0  0  0
 28 30  1  0  0  0  0
 30 29  1  0  0  0  0
M  END
>  <MODEL>
3

>  <REMARK>
  Name = ZINC67272178
                            x       y       z     vdW  Elec       q    Type
                         _______ _______ _______ _____ _____    ______ ____

>  <TORSDO>
F 6

>  <minimizedAffinity>
-8.4556152915642375

$$$$
ZINC67272178
 OpenBabel10211214193D

 30 32  0  0  1  0  0  0  0  0999 V2000
   49.8890   54.4610   18.6890 N   0  0  0  0  0  0  0  0  0  0  0  0
   50.3970   53.7960   19.1790 H   0  0  0  0  0  0  0  0  0  0  0  0
   48.8820   54.0800   17.8790 C   0  0  0  0  0  0  0  0  0  0  0  0
   48.2480   54.9120   17.2650 O   0  0  0  0  0  0  0  0  0  0  0  0
   48.5430   52.6180   17.7360 C   0  0  1  0  0  0  0  0  0  0  0  0
   48.0780   52.3420   16.3040 C   0  0  0  0  0  0  0  0  0  0  0  0
   47.7240   50.8600   16.1610 C   0  0  0  0  0  0  0  0  0  0  0  0
   48.9460   50.0090   16.4900 C   0  0  2  0  0  0  0  0  0  0  0  0
   48.6300   48.5420   16.3210 C   0  0  0  0  0  0  0  0  0  0  0  0
   49.4660   48.1000   15.3590 N   0  0  0  0  0  0  0  0  0  0  0  0
   49.4910   47.1850   15.0360 H   0  0  0  0  0  0  0  0  0  0  0  0
   50.2550   49.0800   14.9040 C   0  0  0  0  0  0  0  0  0  0  0  0
   51.0920   48.9270   14.0360 O   0  0  0  0  0  0  0  0  0  0  0  0
   47.7980   47.8960   16.9240 O   0  0  0  0  0  0  0  0  0  0  0  0
   49.4340   50.2900   17.9070 C   0  0  0  0  0  0  0  0  0  0  0  0
   50.0200   50.2560   15.5190 N   0  0  0  0  0  0  0  0  0  0  0  0
   50.4700   51.0980   15.3520 H   0  0  0  0  0  0  0  0  0  0  0  0
   49.7820   51.7750   18.0440 C   0  0  0  0  0  0  0  0  0  0  0  0
   50.2190   55.8820   18.8280 C   0  0  0  0  0  0  0  0  0  0  0  0
   50.6770   57.0770   20.9140 N   0  0  0  0  0  0  0  0  0  0  0  0
   51.0290   57.8720   20.4020 H   0  0  0  0  0  0  0  0  0  0  0  0
   50.1330   57.5280   22.2000 C   0  0  0  0  0  0  0  0  0  0  0  0
   49.0460   58.5790   21.9580 C   0  0  0  0  0  0  0  0  0  0  0  0
   47.9260   57.9610   21.1160 C   0  0  0  0  0  0  0  0  0  0  0  0
   48.5180   57.4260   19.8080 C   0  0  0  0  0  0  0  0  0  0  0  0
   49.6240   56.4190   20.1310 C   0  0  1  0  0  0  0  0  0  0  0  0
   51.7720   56.1280   21.1540 C   0  0  0  0  0  0  0  0  0  0  0  0
   51.4110   55.2190   22.3300 C   0  0  0  0  0  0  0  0  0  0  0  0
   50.5180   52.9960   21.6160 C   0  0  0  0  0  0  0  0  0  0  0  0
   51.7820   53.7730   21.9910 C   0  0  0  0  0  0  0  0  0  0  0  0
  1 19  1  0  0  0  0
  1  2  1  0  0  0  0
  3  1  1  0  0  0  0
  4  3  2  0  0  0  0
  5  3  1  6  0  0  0
  5 18  1  0  0  0  0
  6  5  1  0  0  0  0
  7  6  1  0  0  0  0
  7  8  1  0  0  0  0
  8 16  1  6  0  0  0
  8 15  1  0  0  0  0
  9  8  1  0  0  0  0
  9 14  2  0  0  0  0
 10  9  1  0  0  0  0
 11 10  1  0  0  0  0
 12 10  1  0  0  0  0
 12 16  1  0  0  0  0
 13 12  2  0  0  0  0
 15 18  1  0  0  0  0
 17 16  1  0  0  0  0
 20 27  1  0  0  0  0
 20 22  1  0  0  0  0
 21 20  1  0  0  0  0
 23 22  1  0  0  0  0
 24 23  1  0  0  0  0
 25 26  1  0  0  0  0
 25 24  1  0  0  0  0
 26 19  1  6  0  0  0
 26 20  1  0  0  0  0
 27 28  1  0  0  0  0
 29 30  1  0  0  0  0
 30 28  1  0  0  0  0
M  END
>  <MODEL>
4

>  <REMARK>
  Name = ZINC67272178
                            x       y       z     vdW  Elec       q    Type
                         _______ _______ _______ _____ _____    ______ ____

>  <TORSDO>
F 6

>  <minimizedAffinity>
-8.2980043002478698

$$$$
ZINC67272178
 OpenBabel10211214193D

 30 32  0  0  1  0  0  0  0  0999 V2000
   49.9730   52.0880   18.1770 N   0  0  0  0  0  0  0  0  0  0  0  0
   49.0650   52.2100   18.4960 H   0  0  0  0  0  0  0  0  0  0  0  0
   50.9430   52.9410   18.5620 C   0  0  0  0  0  0  0  0  0  0  0  0
   52.0780   52.7900   18.1620 O   0  0  0  0  0  0  0  0  0  0  0  0
   50.6160   54.0850   19.4880 C   0  0  1  0  0  0  0  0  0  0  0  0
   51.4800   53.9820   20.7470 C   0  0  0  0  0  0  0  0  0  0  0  0
   51.1410   55.1370   21.6930 C   0  0  0  0  0  0  0  0  0  0  0  0
   51.3970   56.4650   20.9870 C   0  0  2  0  0  0  0  0  0  0  0  0
   51.1020   57.6210   21.9140 C   0  0  0  0  0  0  0  0  0  0  0  0
   52.2700   58.2820   22.0490 N   0  0  0  0  0  0  0  0  0  0  0  0
   52.3860   59.0780   22.5930 H   0  0  0  0  0  0  0  0  0  0  0  0
   53.2480   57.7050   21.3420 C   0  0  0  0  0  0  0  0  0  0  0  0
   54.3900   58.1180   21.3040 O   0  0  0  0  0  0  0  0  0  0  0  0
   50.0380   57.8970   22.4280 O   0  0  0  0  0  0  0  0  0  0  0  0
   50.5580   56.5720   19.7180 C   0  0  0  0  0  0  0  0  0  0  0  0
   52.8240   56.6140   20.6740 N   0  0  0  0  0  0  0  0  0  0  0  0
   53.3560   56.0400   20.1020 H   0  0  0  0  0  0  0  0  0  0  0  0
   50.8990   55.4110   18.7800 C   0  0  0  0  0  0  0  0  0  0  0  0
   50.2910   50.9780   17.2760 C   0  0  0  0  0  0  0  0  0  0  0  0
   48.8460   49.5090   18.5990 N   0  0  0  0  0  0  0  0  0  0  0  0
   48.5660   50.2830   19.1840 H   0  0  0  0  0  0  0  0  0  0  0  0
   47.7700   48.5120   18.5640 C   0  0  0  0  0  0  0  0  0  0  0  0
   46.4780   49.1650   18.0680 C   0  0  0  0  0  0  0  0  0  0  0  0
   46.7030   49.7240   16.6610 C   0  0  0  0  0  0  0  0  0  0  0  0
   47.8770   50.7090   16.6940 C   0  0  0  0  0  0  0  0  0  0  0  0
   49.1160   49.9980   17.2410 C   0  0  1  0  0  0  0  0  0  0  0  0
   50.0620   48.8980   19.1480 C   0  0  0  0  0  0  0  0  0  0  0  0
   50.1770   49.2380   20.6350 C   0  0  0  0  0  0  0  0  0  0  0  0
   52.5140   49.7180   19.8930 C   0  0  0  0  0  0  0  0  0  0  0  0
   51.4040   50.1230   20.8640 C   0  0  0  0  0  0  0  0  0  0  0  0
  1  2  1  0  0  0  0
  1  3  1  0  0  0  0
  4  3  2  0  0  0  0
  5  3  1  6  0  0  0
  5  6  1  0  0  0  0
  6  7  1  0  0  0  0
  8 15  1  6  0  0  0
  8  7  1  0  0  0  0
  8  9  1  0  0  0  0
  9 10  1  0  0  0  0
  9 14  2  0  0  0  0
 10 11  1  0  0  0  0
 12 10  1  0  0  0  0
 13 12  2  0  0  0  0
 16  8  1  0  0  0  0
 16 12  1  0  0  0  0
 17 16  1  0  0  0  0
 18  5  1  0  0  0  0
 18 15  1  0  0  0  0
 19  1  1  0  0  0  0
 20 27  1  0  0  0  0
 20 21  1  0  0  0  0
 22 20  1  0  0  0  0
 23 22  1  0  0  0  0
 24 25  1  0  0  0  0
 24 23  1  0  0  0  0
 25 26  1  0  0  0  0
 26 19  1  1  0  0  0
 26 20  1  0  0  0  0
 27 28  1  0  0  0  0
 28 30  1  0  0  0  0
 29 30  1  0  0  0  0
M  END
>  <MODEL>
5

>  <REMARK>
  Name = ZINC67272178
                            x       y       z     vdW  Elec       q    Type
                         _______ _______ _______ _____ _____    ______ ____

>  <TORSDO>
F 6

>  <minimizedAffinity>
-8.2483323047543031

$$$$
ZINC67272178
 OpenBabel10211214193D

 30 32  0  0  1  0  0  0  0  0999 V2000
   49.2670   52.0180   18.0060 N   0  0  0  0  0  0  0  0  0  0  0  0
   49.8850   51.4290   18.4660 H   0  0  0  0  0  0  0  0  0  0  0  0
   48.2890   51.5030   17.2360 C   0  0  0  0  0  0  0  0  0  0  0  0
   47.5170   52.2400   16.6590 O   0  0  0  0  0  0  0  0  0  0  0  0
   48.1550   50.0090   17.0880 C   0  0  1  0  0  0  0  0  0  0  0  0
   47.0550   49.5010   18.0230 C   0  0  0  0  0  0  0  0  0  0  0  0
   46.9270   47.9820   17.8810 C   0  0  0  0  0  0  0  0  0  0  0  0
   46.5900   47.6330   16.4350 C   0  0  2  0  0  0  0  0  0  0  0  0
   46.4240   46.1390   16.2780 C   0  0  0  0  0  0  0  0  0  0  0  0
   45.1500   45.9590   15.8710 N   0  0  0  0  0  0  0  0  0  0  0  0
   44.7540   45.0920   15.6870 H   0  0  0  0  0  0  0  0  0  0  0  0
   44.5010   47.1230   15.7540 C   0  0  0  0  0  0  0  0  0  0  0  0
   43.3420   47.2180   15.4000 O   0  0  0  0  0  0  0  0  0  0  0  0
   47.2590   45.2830   16.4760 O   0  0  0  0  0  0  0  0  0  0  0  0
   47.6670   48.1520   15.4890 C   0  0  0  0  0  0  0  0  0  0  0  0
   45.2770   48.1780   16.0680 N   0  0  0  0  0  0  0  0  0  0  0  0
   45.0190   49.1130   16.0550 H   0  0  0  0  0  0  0  0  0  0  0  0
   47.7930   49.6700   15.6400 C   0  0  0  0  0  0  0  0  0  0  0  0
   49.3970   53.4710   18.1490 C   0  0  0  0  0  0  0  0  0  0  0  0
   49.8770   54.7140   20.2020 N   0  0  0  0  0  0  0  0  0  0  0  0
   49.1020   54.2700   20.6730 H   0  0  0  0  0  0  0  0  0  0  0  0
   50.8990   55.0820   21.1880 C   0  0  0  0  0  0  0  0  0  0  0  0
   51.3390   53.8370   21.9630 C   0  0  0  0  0  0  0  0  0  0  0  0
   51.9170   52.8120   20.9830 C   0  0  0  0  0  0  0  0  0  0  0  0
   50.8680   52.4910   19.9140 C   0  0  0  0  0  0  0  0  0  0  0  0
   50.4460   53.7860   19.2170 C   0  0  1  0  0  0  0  0  0  0  0  0
   49.4020   55.9220   19.5160 C   0  0  0  0  0  0  0  0  0  0  0  0
   48.0590   56.3510   20.1100 C   0  0  0  0  0  0  0  0  0  0  0  0
   48.8430   58.0950   21.7190 C   0  0  0  0  0  0  0  0  0  0  0  0
   48.0890   57.8510   20.4110 C   0  0  0  0  0  0  0  0  0  0  0  0
  1 19  1  0  0  0  0
  1  2  1  0  0  0  0
  3  1  1  0  0  0  0
  4  3  2  0  0  0  0
  5  3  1  6  0  0  0
  5  6  1  0  0  0  0
  7  6  1  0  0  0  0
  8 15  1  6  0  0  0
  8  7  1  0  0  0  0
  9  8  1  0  0  0  0
  9 14  2  0  0  0  0
 10  9  1  0  0  0  0
 11 10  1  0  0  0  0
 12 10  1  0  0  0  0
 12 16  1  0  0  0  0
 13 12  2  0  0  0  0
 15 18  1  0  0  0  0
 16  8  1  0  0  0  0
 17 16  1  0  0  0  0
 18  5  1  0  0  0  0
 20 21  1  0  0  0  0
 20 22  1  0  0  0  0
 22 23  1  0  0  0  0
 24 23  1  0  0  0  0
 25 24  1  0  0  0  0
 26 19  1  1  0  0  0
 26 25  1  0  0  0  0
 26 20  1  0  0  0  0
 27 28  1  0  0  0  0
 27 20  1  0  0  0  0
 28 30  1  0  0  0  0
 30 29  1  0  0  0  0
M  END
>  <MODEL>
6

>  <REMARK>
  Name = ZINC67272178
                            x       y       z     vdW  Elec       q    Type
                         _______ _______ _______ _____ _____    ______ ____

>  <TORSDO>
F 6

>  <minimizedAffinity>
-8.2024486292100001

$$$$
ZINC67272178
 OpenBabel10211214193D

 30 32  0  0  1  0  0  0  0  0999 V2000
   49.1020   52.0300   17.8740 N   0  0  0  0  0  0  0  0  0  0  0  0
   49.1810   51.2860   18.4900 H   0  0  0  0  0  0  0  0  0  0  0  0
   48.1940   51.9900   16.8790 C   0  0  0  0  0  0  0  0  0  0  0  0
   48.0970   52.9210   16.1070 O   0  0  0  0  0  0  0  0  0  0  0  0
   47.3000   50.7870   16.7240 C   0  0  1  0  0  0  0  0  0  0  0  0
   47.7270   49.9910   15.4880 C   0  0  0  0  0  0  0  0  0  0  0  0
   46.8120   48.7750   15.3240 C   0  0  0  0  0  0  0  0  0  0  0  0
   46.9000   47.8990   16.5700 C   0  0  2  0  0  0  0  0  0  0  0  0
   46.0310   46.6730   16.4170 C   0  0  0  0  0  0  0  0  0  0  0  0
   46.8740   45.6220   16.4860 N   0  0  0  0  0  0  0  0  0  0  0  0
   46.5960   44.6950   16.4180 H   0  0  0  0  0  0  0  0  0  0  0  0
   48.1400   46.0170   16.6590 C   0  0  0  0  0  0  0  0  0  0  0  0
   49.0810   45.2520   16.7510 O   0  0  0  0  0  0  0  0  0  0  0  0
   44.8280   46.6410   16.2630 O   0  0  0  0  0  0  0  0  0  0  0  0
   46.4980   48.6860   17.8130 C   0  0  0  0  0  0  0  0  0  0  0  0
   48.2570   47.3570   16.7220 N   0  0  0  0  0  0  0  0  0  0  0  0
   49.0750   47.8640   16.8420 H   0  0  0  0  0  0  0  0  0  0  0  0
   47.4140   49.9030   17.9670 C   0  0  0  0  0  0  0  0  0  0  0  0
   49.9720   53.2000   18.0230 C   0  0  0  0  0  0  0  0  0  0  0  0
   50.2880   54.0040   20.3140 N   0  0  0  0  0  0  0  0  0  0  0  0
   49.3350   53.7650   20.5470 H   0  0  0  0  0  0  0  0  0  0  0  0
   51.1180   53.9340   21.5220 C   0  0  0  0  0  0  0  0  0  0  0  0
   51.0140   52.5360   22.1370 C   0  0  0  0  0  0  0  0  0  0  0  0
   51.5010   51.5000   21.1210 C   0  0  0  0  0  0  0  0  0  0  0  0
   50.6780   51.6320   19.8360 C   0  0  0  0  0  0  0  0  0  0  0  0
   50.7940   53.0630   19.3070 C   0  0  1  0  0  0  0  0  0  0  0  0
   50.3290   55.3680   19.7710 C   0  0  0  0  0  0  0  0  0  0  0  0
   49.5160   56.3000   20.6710 C   0  0  0  0  0  0  0  0  0  0  0  0
   47.5040   57.7770   20.5520 C   0  0  0  0  0  0  0  0  0  0  0  0
   48.0960   56.4350   20.1180 C   0  0  0  0  0  0  0  0  0  0  0  0
  1 19  1  0  0  0  0
  1  2  1  0  0  0  0
  3  1  1  0  0  0  0
  4  3  2  0  0  0  0
  5  3  1  1  0  0  0
  5 18  1  0  0  0  0
  6  5  1  0  0  0  0
  7  6  1  0  0  0  0
  8  7  1  6  0  0  0
  8 16  1  0  0  0  0
  8 15  1  0  0  0  0
  9 10  1  0  0  0  0
  9  8  1  0  0  0  0
 10 12  1  0  0  0  0
 11 10  1  0  0  0  0
 12 16  1  0  0  0  0
 12 13  2  0  0  0  0
 14  9  2  0  0  0  0
 15 18  1  0  0  0  0
 16 17  1  0  0  0  0
 20 21  1  0  0  0  0
 20 22  1  0  0  0  0
 22 23  1  0  0  0  0
 24 23  1  0  0  0  0
 25 24  1  0  0  0  0
 26 19  1  1  0  0  0
 26 25  1  0  0  0  0
 26 20  1  0  0  0  0
 27 20  1  0  0  0  0
 27 28  1  0  0  0  0
 30 29  1  0  0  0  0
 30 28  1  0  0  0  0
M  END
>  <MODEL>
7

>  <REMARK>
  Name = ZINC67272178
                            x       y       z     vdW  Elec       q    Type
                         _______ _______ _______ _____ _____    ______ ____

>  <TORSDO>
F 6

>  <minimizedAffinity>
-8.1914911733837155

$$$$
ZINC67272178
 OpenBabel10211214193D

 30 32  0  0  1  0  0  0  0  0999 V2000
   48.7540   52.5330   17.9360 N   0  0  0  0  0  0  0  0  0  0  0  0
   47.8760   52.8370   18.2160 H   0  0  0  0  0  0  0  0  0  0  0  0
   48.8860   51.3610   17.2840 C   0  0  0  0  0  0  0  0  0  0  0  0
   49.9840   50.9810   16.9350 O   0  0  0  0  0  0  0  0  0  0  0  0
   47.6700   50.5220   16.9890 C   0  0  1  0  0  0  0  0  0  0  0  0
   47.8930   49.7400   15.6920 C   0  0  0  0  0  0  0  0  0  0  0  0
   46.6530   48.8960   15.3870 C   0  0  0  0  0  0  0  0  0  0  0  0
   46.3950   47.9340   16.5420 C   0  0  2  0  0  0  0  0  0  0  0  0
   45.1950   47.0650   16.2480 C   0  0  0  0  0  0  0  0  0  0  0  0
   45.6610   45.7990   16.2340 N   0  0  0  0  0  0  0  0  0  0  0  0
   45.1100   45.0170   16.0680 H   0  0  0  0  0  0  0  0  0  0  0  0
   46.9760   45.7550   16.4760 C   0  0  0  0  0  0  0  0  0  0  0  0
   47.6230   44.7270   16.5170 O   0  0  0  0  0  0  0  0  0  0  0  0
   44.0520   47.4290   16.0620 O   0  0  0  0  0  0  0  0  0  0  0  0
   46.1920   48.6990   17.8460 C   0  0  0  0  0  0  0  0  0  0  0  0
   47.5030   46.9790   16.6740 N   0  0  0  0  0  0  0  0  0  0  0  0
   48.4300   47.1880   16.8640 H   0  0  0  0  0  0  0  0  0  0  0  0
   47.4330   49.5440   18.1420 C   0  0  0  0  0  0  0  0  0  0  0  0
   49.9360   53.3490   18.2230 C   0  0  0  0  0  0  0  0  0  0  0  0
   50.9330   54.7740   19.9450 N   0  0  0  0  0  0  0  0  0  0  0  0
   51.3420   55.3690   19.2400 H   0  0  0  0  0  0  0  0  0  0  0  0
   50.6930   55.5570   21.1630 C   0  0  0  0  0  0  0  0  0  0  0  0
   49.7970   56.7540   20.8370 C   0  0  0  0  0  0  0  0  0  0  0  0
   48.4630   56.2490   20.2810 C   0  0  0  0  0  0  0  0  0  0  0  0
   48.7300   55.3720   19.0530 C   0  0  0  0  0  0  0  0  0  0  0  0
   49.6660   54.2270   19.4470 C   0  0  1  0  0  0  0  0  0  0  0  0
   51.8550   53.6720   20.2470 C   0  0  0  0  0  0  0  0  0  0  0  0
   51.5640   53.1320   21.6480 C   0  0  0  0  0  0  0  0  0  0  0  0
   51.1270   50.9050   20.6010 C   0  0  0  0  0  0  0  0  0  0  0  0
   51.8970   51.6390   21.7000 C   0  0  0  0  0  0  0  0  0  0  0  0
  1  2  1  0  0  0  0
  1 19  1  0  0  0  0
  3  1  1  0  0  0  0
  4  3  2  0  0  0  0
  5  3  1  1  0  0  0
  5 18  1  0  0  0  0
  6  5  1  0  0  0  0
  7  6  1  0  0  0  0
  8  7  1  6  0  0  0
  8 16  1  0  0  0  0
  8 15  1  0  0  0  0
  9  8  1  0  0  0  0
 10  9  1  0  0  0  0
 10 12  1  0  0  0  0
 11 10  1  0  0  0  0
 12 13  2  0  0  0  0
 12 16  1  0  0  0  0
 14  9  2  0  0  0  0
 15 18  1  0  0  0  0
 16 17  1  0  0  0  0
 20 27  1  0  0  0  0
 20 22  1  0  0  0  0
 21 20  1  0  0  0  0
 23 22  1  0  0  0  0
 24 23  1  0  0  0  0
 25 26  1  0  0  0  0
 25 24  1  0  0  0  0
 26 19  1  6  0  0  0
 26 20  1  0  0  0  0
 27 28  1  0  0  0  0
 28 30  1  0  0  0  0
 29 30  1  0  0  0  0
M  END
>  <MODEL>
8

>  <REMARK>
  Name = ZINC67272178
                            x       y       z     vdW  Elec       q    Type
                         _______ _______ _______ _____ _____    ______ ____

>  <TORSDO>
F 6

>  <minimizedAffinity>
-8.0937689372006414

$$$$
ZINC67272178
 OpenBabel10211214193D

 30 32  0  0  1  0  0  0  0  0999 V2000
   48.6190   52.8150   17.5530 N   0  0  0  0  0  0  0  0  0  0  0  0
   47.9160   52.9080   16.8920 H   0  0  0  0  0  0  0  0  0  0  0  0
   49.0340   51.5890   17.9280 C   0  0  0  0  0  0  0  0  0  0  0  0
   49.9130   51.4720   18.7560 O   0  0  0  0  0  0  0  0  0  0  0  0
   48.4060   50.3620   17.3190 C   0  0  1  0  0  0  0  0  0  0  0  0
   48.6440   49.1590   18.2360 C   0  0  0  0  0  0  0  0  0  0  0  0
   48.0150   47.9110   17.6130 C   0  0  0  0  0  0  0  0  0  0  0  0
   46.5190   48.1360   17.4200 C   0  0  2  0  0  0  0  0  0  0  0  0
   45.8700   46.9030   16.8380 C   0  0  0  0  0  0  0  0  0  0  0  0
   44.9690   46.5000   17.7580 N   0  0  0  0  0  0  0  0  0  0  0  0
   44.3950   45.7240   17.6560 H   0  0  0  0  0  0  0  0  0  0  0  0
   44.9640   47.3040   18.8270 C   0  0  0  0  0  0  0  0  0  0  0  0
   44.2360   47.1470   19.7880 O   0  0  0  0  0  0  0  0  0  0  0  0
   46.1090   46.3820   15.7680 O   0  0  0  0  0  0  0  0  0  0  0  0
   46.2660   49.3450   16.5260 C   0  0  0  0  0  0  0  0  0  0  0  0
   45.8550   48.3090   18.7180 N   0  0  0  0  0  0  0  0  0  0  0  0
   46.0240   49.0080   19.3690 H   0  0  0  0  0  0  0  0  0  0  0  0
   46.9020   50.5880   17.1530 C   0  0  0  0  0  0  0  0  0  0  0  0
   49.2290   54.0070   18.1450 C   0  0  0  0  0  0  0  0  0  0  0  0
   48.8420   56.3700   18.6540 N   0  0  0  0  0  0  0  0  0  0  0  0
   49.7520   56.6150   18.2930 H   0  0  0  0  0  0  0  0  0  0  0  0
   47.9330   57.5120   18.5010 C   0  0  0  0  0  0  0  0  0  0  0  0
   47.8720   57.9260   17.0290 C   0  0  0  0  0  0  0  0  0  0  0  0
   47.3590   56.7490   16.1950 C   0  0  0  0  0  0  0  0  0  0  0  0
   48.2710   55.5390   16.4210 C   0  0  0  0  0  0  0  0  0  0  0  0
   48.3180   55.2150   17.9150 C   0  0  1  0  0  0  0  0  0  0  0  0
   48.9590   56.0260   20.0770 C   0  0  0  0  0  0  0  0  0  0  0  0
   48.4590   57.1960   20.9270 C   0  0  0  0  0  0  0  0  0  0  0  0
   50.6650   56.7780   22.0260 C   0  0  0  0  0  0  0  0  0  0  0  0
   49.6440   57.8500   21.6420 C   0  0  0  0  0  0  0  0  0  0  0  0
  1  3  1  0  0  0  0
  1 19  1  0  0  0  0
  2  1  1  0  0  0  0
  3  4  2  0  0  0  0
  5  3  1  1  0  0  0
  5  6  1  0  0  0  0
  7  6  1  0  0  0  0
  8 15  1  6  0  0  0
  8  7  1  0  0  0  0
  8 16  1  0  0  0  0
  9  8  1  0  0  0  0
  9 10  1  0  0  0  0
 10 12  1  0  0  0  0
 11 10  1  0  0  0  0
 12 13  2  0  0  0  0
 14  9  2  0  0  0  0
 15 18  1  0  0  0  0
 16 12  1  0  0  0  0
 16 17  1  0  0  0  0
 18  5  1  0  0  0  0
 20 27  1  0  0  0  0
 21 20  1  0  0  0  0
 22 20  1  0  0  0  0
 23 22  1  0  0  0  0
 24 25  1  0  0  0  0
 24 23  1  0  0  0  0
 25 26  1  0  0  0  0
 26 19  1  6  0  0  0
 26 20  1  0  0  0  0
 27 28  1  0  0  0  0
 28 30  1  0  0  0  0
 30 29  1  0  0  0  0
M  END
>  <MODEL>
9

>  <REMARK>
  Name = ZINC67272178
                            x       y       z     vdW  Elec       q    Type
                         _______ _______ _______ _____ _____    ______ ____

>  <TORSDO>
F 6

>  <minimizedAffinity>
-7.9512792734720339

$$$$
ZINC24870555
 OpenBabel10211214223D

 37 39  0  0  0  0  0  0  0  0999 V2000
   51.9590   53.5290   20.6080 N   0  0  0  0  0  0  0  0  0  0  0  0
   51.7380   52.8110   21.4130 H   0  0  0  0  0  0  0  0  0  0  0  0
   52.3290   53.0820   19.3910 C   0  0  0  0  0  0  0  0  0  0  0  0
   52.5720   53.8730   18.5040 O   0  0  0  0  0  0  0  0  0  0  0  0
   51.7630   55.3630   22.1120 C   0  0  0  0  0  0  0  0  0  0  0  0
   51.8570   54.9040   20.8480 N   0  0  0  0  0  0  0  0  0  0  0  0
   51.8530   55.6110   20.0040 H   0  0  0  0  0  0  0  0  0  0  0  0
   51.7670   54.5830   23.0420 O   0  0  0  0  0  0  0  0  0  0  0  0
   51.6520   56.8430   22.3710 C   0  0  0  0  0  0  0  0  0  0  0  0
   48.4640   58.0800   21.0210 N   0  0  0  0  0  0  0  0  0  0  0  0
   47.8330   58.0910   21.9220 H   0  0  0  0  0  0  0  0  0  0  0  0
   49.7540   57.7040   21.1070 C   0  0  0  0  0  0  0  0  0  0  0  0
   50.2490   57.2520   22.2760 N   0  0  0  0  0  0  0  0  0  0  0  0
   49.5980   57.1910   23.1610 H   0  0  0  0  0  0  0  0  0  0  0  0
   50.4740   57.7720   20.1290 O   0  0  0  0  0  0  0  0  0  0  0  0
   46.8610   59.1990   17.3410 C   0  0  0  0  0  0  0  0  0  0  0  0
   47.4470   57.9550   17.4890 C   0  0  0  0  0  0  0  0  0  0  0  0
   47.9790   57.5810   18.7070 C   0  0  0  0  0  0  0  0  0  0  0  0
   47.9260   58.4560   19.7850 C   0  0  0  0  0  0  0  0  0  0  0  0
   47.3320   59.7010   19.6350 C   0  0  0  0  0  0  0  0  0  0  0  0
   46.8060   60.0710   18.4120 C   0  0  0  0  0  0  0  0  0  0  0  0
   52.4390   51.6020   19.1320 C   0  0  0  0  0  0  0  0  0  0  0  0
   51.4580   50.9090   19.9050 O   0  0  0  0  0  0  0  0  0  0  0  0
   50.3810   50.4170   19.2390 C   0  0  0  0  0  0  0  0  0  0  0  0
   49.9660   49.1110   19.4610 C   0  0  0  0  0  0  0  0  0  0  0  0
   48.8710   48.6110   18.7890 C   0  0  0  0  0  0  0  0  0  0  0  0
   48.1860   49.4140   17.8780 C   0  0  0  0  0  0  0  0  0  0  0  0
   48.6080   50.7250   17.6550 C   0  0  0  0  0  0  0  0  0  0  0  0
   49.7010   51.2210   18.3330 C   0  0  0  0  0  0  0  0  0  0  0  0
   47.0130   48.8780   17.1490 C   0  0  0  0  0  0  0  0  0  0  0  0
   45.8050   48.6830   17.8210 C   0  0  0  0  0  0  0  0  0  0  0  0
   44.7120   48.1900   17.1450 C   0  0  0  0  0  0  0  0  0  0  0  0
   44.8160   47.8740   15.7870 C   0  0  0  0  0  0  0  0  0  0  0  0
   46.0270   48.0630   15.1170 C   0  0  0  0  0  0  0  0  0  0  0  0
   47.1170   48.5620   15.7940 C   0  0  0  0  0  0  0  0  0  0  0  0
   43.6820   47.3540   15.0840 C   0  0  0  0  0  0  0  0  0  0  0  0
   42.7810   46.9420   14.5270 N   0  0  0  0  0  0  0  0  0  0  0  0
  1  6  1  0  0  0  0
  1  2  1  0  0  0  0
  3  1  1  0  0  0  0
  4  3  2  0  0  0  0
  5  9  1  0  0  0  0
  5  8  2  0  0  0  0
  6  5  1  0  0  0  0
  7  6  1  0  0  0  0
 10 12  1  0  0  0  0
 10 11  1  0  0  0  0
 12 13  1  0  0  0  0
 13  9  1  0  0  0  0
 13 14  1  0  0  0  0
 15 12  2  0  0  0  0
 16 17  2  0  0  0  0
 16 21  1  0  0  0  0
 17 18  1  0  0  0  0
 18 19  2  0  0  0  0
 19 10  1  0  0  0  0
 20 19  1  0  0  0  0
 21 20  2  0  0  0  0
 22  3  1  0  0  0  0
 22 23  1  0  0  0  0
 24 25  1  0  0  0  0
 24 23  1  0  0  0  0
 26 25  2  0  0  0  0
 27 26  1  0  0  0  0
 28 27  2  0  0  0  0
 28 29  1  0  0  0  0
 29 24  2  0  0  0  0
 30 31  1  0  0  0  0
 30 27  1  0  0  0  0
 32 31  2  0  0  0  0
 33 32  1  0  0  0  0
 34 33  2  0  0  0  0
 34 35  1  0  0  0  0
 35 30  2  0  0  0  0
 36 33  1  0  0  0  0
 37 36  3  0  0  0  0
M  END
>  <MODEL>
1

>  <REMARK>
  Name = ZINC24870555
                            x       y       z     vdW  Elec       q    Type
                         _______ _______ _______ _____ _____    ______ ____

>  <TORSDO>
F 9

>  <minimizedAffinity>
-10.003995377707675

$$$$
ZINC24870555
 OpenBabel10211214223D

 37 39  0  0  0  0  0  0  0  0999 V2000
   52.1570   51.1930   17.6230 N   0  0  0  0  0  0  0  0  0  0  0  0
   52.8690   52.0050   17.4080 H   0  0  0  0  0  0  0  0  0  0  0  0
   52.0250   50.7290   18.8820 C   0  0  0  0  0  0  0  0  0  0  0  0
   51.2410   49.8350   19.1190 O   0  0  0  0  0  0  0  0  0  0  0  0
   51.9930   50.2050   15.4640 C   0  0  0  0  0  0  0  0  0  0  0  0
   51.3920   50.6400   16.5890 N   0  0  0  0  0  0  0  0  0  0  0  0
   50.2990   50.5610   16.6940 H   0  0  0  0  0  0  0  0  0  0  0  0
   53.1980   50.2920   15.3470 O   0  0  0  0  0  0  0  0  0  0  0  0
   51.1700   49.6110   14.3500 C   0  0  0  0  0  0  0  0  0  0  0  0
   48.4960   47.6250   15.9060 N   0  0  0  0  0  0  0  0  0  0  0  0
   48.9340   46.6160   15.8900 H   0  0  0  0  0  0  0  0  0  0  0  0
   49.2010   48.6720   15.4360 C   0  0  0  0  0  0  0  0  0  0  0  0
   50.4030   48.4730   14.8620 N   0  0  0  0  0  0  0  0  0  0  0  0
   50.8090   47.4540   14.7760 H   0  0  0  0  0  0  0  0  0  0  0  0
   48.7520   49.7980   15.5310 O   0  0  0  0  0  0  0  0  0  0  0  0
   44.6570   48.2070   17.4190 C   0  0  0  0  0  0  0  0  0  0  0  0
   44.8420   48.0100   16.0620 C   0  0  0  0  0  0  0  0  0  0  0  0
   46.1130   47.8170   15.5580 C   0  0  0  0  0  0  0  0  0  0  0  0
   47.2070   47.8210   16.4140 C   0  0  0  0  0  0  0  0  0  0  0  0
   47.0170   48.0130   17.7760 C   0  0  0  0  0  0  0  0  0  0  0  0
   45.7440   48.2110   18.2730 C   0  0  0  0  0  0  0  0  0  0  0  0
   52.8480   51.3230   19.9950 C   0  0  0  0  0  0  0  0  0  0  0  0
   51.9850   51.7570   21.0480 O   0  0  0  0  0  0  0  0  0  0  0  0
   51.2760   52.8960   20.8350 C   0  0  0  0  0  0  0  0  0  0  0  0
   50.1410   52.8660   20.0350 C   0  0  0  0  0  0  0  0  0  0  0  0
   49.4160   54.0200   19.8200 C   0  0  0  0  0  0  0  0  0  0  0  0
   49.8310   55.2190   20.3980 C   0  0  0  0  0  0  0  0  0  0  0  0
   50.9730   55.2460   21.1980 C   0  0  0  0  0  0  0  0  0  0  0  0
   51.6900   54.0890   21.4130 C   0  0  0  0  0  0  0  0  0  0  0  0
   49.0580   56.4620   20.1640 C   0  0  0  0  0  0  0  0  0  0  0  0
   48.6220   56.7800   18.8770 C   0  0  0  0  0  0  0  0  0  0  0  0
   47.8990   57.9310   18.6590 C   0  0  0  0  0  0  0  0  0  0  0  0
   47.6110   58.7870   19.7260 C   0  0  0  0  0  0  0  0  0  0  0  0
   48.0540   58.4700   21.0130 C   0  0  0  0  0  0  0  0  0  0  0  0
   48.7710   57.3160   21.2300 C   0  0  0  0  0  0  0  0  0  0  0  0
   46.8660   59.9880   19.5000 C   0  0  0  0  0  0  0  0  0  0  0  0
   46.2740   60.9420   19.3190 N   0  0  0  0  0  0  0  0  0  0  0  0
  1  3  1  0  0  0  0
  2  1  1  0  0  0  0
  3  4  2  0  0  0  0
  3 22  1  0  0  0  0
  5  6  1  0  0  0  0
  6  7  1  0  0  0  0
  6  1  1  0  0  0  0
  8  5  2  0  0  0  0
  9 13  1  0  0  0  0
  9  5  1  0  0  0  0
 10 19  1  0  0  0  0
 11 10  1  0  0  0  0
 12 15  2  0  0  0  0
 12 10  1  0  0  0  0
 13 12  1  0  0  0  0
 14 13  1  0  0  0  0
 16 21  2  0  0  0  0
 17 16  1  0  0  0  0
 18 17  2  0  0  0  0
 18 19  1  0  0  0  0
 19 20  2  0  0  0  0
 20 21  1  0  0  0  0
 22 23  1  0  0  0  0
 24 23  1  0  0  0  0
 24 29  2  0  0  0  0
 25 24  1  0  0  0  0
 26 25  2  0  0  0  0
 26 27  1  0  0  0  0
 27 28  2  0  0  0  0
 28 29  1  0  0  0  0
 30 27  1  0  0  0  0
 30 35  2  0  0  0  0
 31 30  1  0  0  0  0
 32 31  2  0  0  0  0
 32 33  1  0  0  0  0
 33 34  2  0  0  0  0
 34 35  1  0  0  0  0
 36 33  1  0  0  0  0
 37 36  3  0  0  0  0
M  END
>  <MODEL>
2

>  <REMARK>
  Name = ZINC24870555
                            x       y       z     vdW  Elec       q    Type
                         _______ _______ _______ _____ _____    ______ ____

>  <TORSDO>
F 9

>  <minimizedAffinity>
-9.981529780089426

$$$$
ZINC24870555
 OpenBabel10211214223D

 37 39  0  0  0  0  0  0  0  0999 V2000
   52.2070   53.6490   19.7740 N   0  0  0  0  0  0  0  0  0  0  0  0
   52.8060   54.1760   20.5310 H   0  0  0  0  0  0  0  0  0  0  0  0
   51.1370   54.2540   19.2210 C   0  0  0  0  0  0  0  0  0  0  0  0
   50.4770   53.6720   18.3860 O   0  0  0  0  0  0  0  0  0  0  0  0
   52.4110   51.3260   20.2510 C   0  0  0  0  0  0  0  0  0  0  0  0
   52.5550   52.3490   19.3860 N   0  0  0  0  0  0  0  0  0  0  0  0
   52.9470   52.1630   18.3740 H   0  0  0  0  0  0  0  0  0  0  0  0
   51.9790   51.5310   21.3670 O   0  0  0  0  0  0  0  0  0  0  0  0
   52.7860   49.9270   19.8350 C   0  0  0  0  0  0  0  0  0  0  0  0
   49.5120   48.5450   18.8940 N   0  0  0  0  0  0  0  0  0  0  0  0
   49.3730   47.7670   19.6600 H   0  0  0  0  0  0  0  0  0  0  0  0
   50.6130   49.3210   18.9140 C   0  0  0  0  0  0  0  0  0  0  0  0
   51.5880   49.0850   19.8130 N   0  0  0  0  0  0  0  0  0  0  0  0
   51.4850   48.2580   20.5310 H   0  0  0  0  0  0  0  0  0  0  0  0
   50.7270   50.2350   18.1200 O   0  0  0  0  0  0  0  0  0  0  0  0
   46.6320   49.0900   15.9330 C   0  0  0  0  0  0  0  0  0  0  0  0
   47.7340   48.2910   15.6850 C   0  0  0  0  0  0  0  0  0  0  0  0
   48.6900   48.1090   16.6650 C   0  0  0  0  0  0  0  0  0  0  0  0
   48.5440   48.7280   17.9000 C   0  0  0  0  0  0  0  0  0  0  0  0
   47.4350   49.5240   18.1470 C   0  0  0  0  0  0  0  0  0  0  0  0
   46.4840   49.7060   17.1610 C   0  0  0  0  0  0  0  0  0  0  0  0
   50.7620   55.6520   19.6380 C   0  0  0  0  0  0  0  0  0  0  0  0
   49.3980   55.6720   20.0650 O   0  0  0  0  0  0  0  0  0  0  0  0
   48.7040   56.8220   19.8590 C   0  0  0  0  0  0  0  0  0  0  0  0
   48.3620   57.6270   20.9370 C   0  0  0  0  0  0  0  0  0  0  0  0
   47.6610   58.7970   20.7300 C   0  0  0  0  0  0  0  0  0  0  0  0
   47.2870   59.1650   19.4380 C   0  0  0  0  0  0  0  0  0  0  0  0
   47.6290   58.3510   18.3580 C   0  0  0  0  0  0  0  0  0  0  0  0
   48.3340   57.1860   18.5710 C   0  0  0  0  0  0  0  0  0  0  0  0
   46.5290   60.4180   19.2130 C   0  0  0  0  0  0  0  0  0  0  0  0
   45.3610   60.3980   18.4490 C   0  0  0  0  0  0  0  0  0  0  0  0
   44.6520   61.5610   18.2440 C   0  0  0  0  0  0  0  0  0  0  0  0
   45.1090   62.7630   18.7920 C   0  0  0  0  0  0  0  0  0  0  0  0
   46.2820   62.7820   19.5510 C   0  0  0  0  0  0  0  0  0  0  0  0
   46.9860   61.6180   19.7600 C   0  0  0  0  0  0  0  0  0  0  0  0
   44.3770   63.9740   18.5730 C   0  0  0  0  0  0  0  0  0  0  0  0
   43.7960   64.9350   18.4000 N   0  0  0  0  0  0  0  0  0  0  0  0
  1  2  1  0  0  0  0
  3 22  1  0  0  0  0
  3  1  1  0  0  0  0
  4  3  2  0  0  0  0
  5  8  2  0  0  0  0
  6  1  1  0  0  0  0
  6  5  1  0  0  0  0
  7  6  1  0  0  0  0
  9  5  1  0  0  0  0
 10 12  1  0  0  0  0
 10 11  1  0  0  0  0
 12 13  1  0  0  0  0
 13  9  1  0  0  0  0
 13 14  1  0  0  0  0
 15 12  2  0  0  0  0
 16 21  1  0  0  0  0
 17 16  2  0  0  0  0
 17 18  1  0  0  0  0
 18 19  2  0  0  0  0
 19 20  1  0  0  0  0
 19 10  1  0  0  0  0
 21 20  2  0  0  0  0
 22 23  1  0  0  0  0
 24 23  1  0  0  0  0
 24 25  2  0  0  0  0
 26 25  1  0  0  0  0
 27 26  2  0  0  0  0
 28 29  2  0  0  0  0
 28 27  1  0  0  0  0
 29 24  1  0  0  0  0
 30 27  1  0  0  0  0
 30 35  2  0  0  0  0
 31 30  1  0  0  0  0
 32 31  2  0  0  0  0
 32 33  1  0  0  0  0
 33 34  2  0  0  0  0
 34 35  1  0  0  0  0
 36 33  1  0  0  0  0
 37 36  3  0  0  0  0
M  END
>  <MODEL>
3

>  <REMARK>
  Name = ZINC24870555
                            x       y       z     vdW  Elec       q    Type
                         _______ _______ _______ _____ _____    ______ ____

>  <TORSDO>
F 9

>  <minimizedAffinity>
-9.9455382019184526

$$$$
ZINC24870555
 OpenBabel10211214223D

 37 39  0  0  0  0  0  0  0  0999 V2000
   52.3590   53.0050   20.9190 N   0  0  0  0  0  0  0  0  0  0  0  0
   53.1250   53.7730   20.7350 H   0  0  0  0  0  0  0  0  0  0  0  0
   51.4750   53.1620   21.9240 C   0  0  0  0  0  0  0  0  0  0  0  0
   50.6310   52.3150   22.1270 O   0  0  0  0  0  0  0  0  0  0  0  0
   52.2710   51.9880   18.7680 C   0  0  0  0  0  0  0  0  0  0  0  0
   52.3040   51.8630   20.1100 N   0  0  0  0  0  0  0  0  0  0  0  0
   52.2880   50.8630   20.5700 H   0  0  0  0  0  0  0  0  0  0  0  0
   52.2880   53.0910   18.2620 O   0  0  0  0  0  0  0  0  0  0  0  0
   52.2110   50.7600   17.8980 C   0  0  0  0  0  0  0  0  0  0  0  0
   49.0470   50.4330   16.0520 N   0  0  0  0  0  0  0  0  0  0  0  0
   49.2510   51.0410   15.1580 H   0  0  0  0  0  0  0  0  0  0  0  0
   50.0020   50.2740   16.9890 C   0  0  0  0  0  0  0  0  0  0  0  0
   51.1720   50.9330   16.8790 N   0  0  0  0  0  0  0  0  0  0  0  0
   51.3480   51.6020   16.0230 H   0  0  0  0  0  0  0  0  0  0  0  0
   49.8080   49.5340   17.9350 O   0  0  0  0  0  0  0  0  0  0  0  0
   45.3260   48.6240   16.5410 C   0  0  0  0  0  0  0  0  0  0  0  0
   46.1970   48.1590   15.5720 C   0  0  0  0  0  0  0  0  0  0  0  0
   47.4310   48.7570   15.4080 C   0  0  0  0  0  0  0  0  0  0  0  0
   47.7980   49.8260   16.2160 C   0  0  0  0  0  0  0  0  0  0  0  0
   46.9230   50.2860   17.1910 C   0  0  0  0  0  0  0  0  0  0  0  0
   45.6880   49.6870   17.3470 C   0  0  0  0  0  0  0  0  0  0  0  0
   51.5340   54.3900   22.7950 C   0  0  0  0  0  0  0  0  0  0  0  0
   51.9870   55.5020   22.0200 O   0  0  0  0  0  0  0  0  0  0  0  0
   51.0440   56.2040   21.3400 C   0  0  0  0  0  0  0  0  0  0  0  0
   50.8720   55.9930   19.9780 C   0  0  0  0  0  0  0  0  0  0  0  0
   49.9120   56.7010   19.2850 C   0  0  0  0  0  0  0  0  0  0  0  0
   49.1220   57.6370   19.9510 C   0  0  0  0  0  0  0  0  0  0  0  0
   49.3000   57.8490   21.3180 C   0  0  0  0  0  0  0  0  0  0  0  0
   50.2580   57.1350   22.0050 C   0  0  0  0  0  0  0  0  0  0  0  0
   48.0940   58.4040   19.2080 C   0  0  0  0  0  0  0  0  0  0  0  0
   47.7650   58.0430   17.9010 C   0  0  0  0  0  0  0  0  0  0  0  0
   46.8060   58.7500   17.2110 C   0  0  0  0  0  0  0  0  0  0  0  0
   46.1710   59.8380   17.8170 C   0  0  0  0  0  0  0  0  0  0  0  0
   46.5060   60.2020   19.1240 C   0  0  0  0  0  0  0  0  0  0  0  0
   47.4610   59.4890   19.8130 C   0  0  0  0  0  0  0  0  0  0  0  0
   45.1790   60.5790   17.0980 C   0  0  0  0  0  0  0  0  0  0  0  0
   44.3920   61.1680   16.5280 N   0  0  0  0  0  0  0  0  0  0  0  0
  1  3  1  0  0  0  0
  2  1  1  0  0  0  0
  3  4  2  0  0  0  0
  3 22  1  0  0  0  0
  5  6  1  0  0  0  0
  6  7  1  0  0  0  0
  6  1  1  0  0  0  0
  8  5  2  0  0  0  0
  9  5  1  0  0  0  0
 10 19  1  0  0  0  0
 10 12  1  0  0  0  0
 11 10  1  0  0  0  0
 12 15  2  0  0  0  0
 13 12  1  0  0  0  0
 13  9  1  0  0  0  0
 14 13  1  0  0  0  0
 16 21  2  0  0  0  0
 17 16  1  0  0  0  0
 18 17  2  0  0  0  0
 18 19  1  0  0  0  0
 19 20  2  0  0  0  0
 20 21  1  0  0  0  0
 23 22  1  0  0  0  0
 24 29  1  0  0  0  0
 24 23  1  0  0  0  0
 25 24  2  0  0  0  0
 26 27  2  0  0  0  0
 26 25  1  0  0  0  0
 27 28  1  0  0  0  0
 28 29  2  0  0  0  0
 30 35  1  0  0  0  0
 30 27  1  0  0  0  0
 31 30  2  0  0  0  0
 32 33  2  0  0  0  0
 32 31  1  0  0  0  0
 33 34  1  0  0  0  0
 34 35  2  0  0  0  0
 36 33  1  0  0  0  0
 37 36  3  0  0  0  0
M  END
>  <MODEL>
4

>  <REMARK>
  Name = ZINC24870555
                            x       y       z     vdW  Elec       q    Type
                         _______ _______ _______ _____ _____    ______ ____

>  <TORSDO>
F 9

>  <minimizedAffinity>
-9.8312420460346122

$$$$
ZINC24870555
 OpenBabel10211214223D

 37 39  0  0  0  0  0  0  0  0999 V2000
   50.5700   49.1640   18.8550 N   0  0  0  0  0  0  0  0  0  0  0  0
   50.8930   49.5940   17.8950 H   0  0  0  0  0  0  0  0  0  0  0  0
   51.3820   49.2310   19.9300 C   0  0  0  0  0  0  0  0  0  0  0  0
   51.0260   48.7570   20.9880 O   0  0  0  0  0  0  0  0  0  0  0  0
   48.2160   49.1720   18.5040 C   0  0  0  0  0  0  0  0  0  0  0  0
   49.3190   48.5450   18.9600 N   0  0  0  0  0  0  0  0  0  0  0  0
   49.2350   47.5460   19.4160 H   0  0  0  0  0  0  0  0  0  0  0  0
   48.3080   50.2730   18.0030 O   0  0  0  0  0  0  0  0  0  0  0  0
   46.8690   48.5060   18.6180 C   0  0  0  0  0  0  0  0  0  0  0  0
   45.8140   47.1650   15.3620 N   0  0  0  0  0  0  0  0  0  0  0  0
   46.1620   46.1230   15.4300 H   0  0  0  0  0  0  0  0  0  0  0  0
   45.9910   48.0030   16.4010 C   0  0  0  0  0  0  0  0  0  0  0  0
   46.6760   47.5950   17.4880 N   0  0  0  0  0  0  0  0  0  0  0  0
   47.0910   46.5770   17.5250 H   0  0  0  0  0  0  0  0  0  0  0  0
   45.5320   49.1280   16.3600 O   0  0  0  0  0  0  0  0  0  0  0  0
   43.9490   48.5160   11.8900 C   0  0  0  0  0  0  0  0  0  0  0  0
   45.3250   48.5910   12.0080 C   0  0  0  0  0  0  0  0  0  0  0  0
   45.9460   48.1450   13.1570 C   0  0  0  0  0  0  0  0  0  0  0  0
   45.1870   47.6190   14.1960 C   0  0  0  0  0  0  0  0  0  0  0  0
   43.8070   47.5400   14.0720 C   0  0  0  0  0  0  0  0  0  0  0  0
   43.1920   47.9930   12.9210 C   0  0  0  0  0  0  0  0  0  0  0  0
   52.7280   49.8970   19.8170 C   0  0  0  0  0  0  0  0  0  0  0  0
   52.8480   50.9040   20.8240 O   0  0  0  0  0  0  0  0  0  0  0  0
   52.1040   52.0300   20.6620 C   0  0  0  0  0  0  0  0  0  0  0  0
   51.2610   52.4550   21.6800 C   0  0  0  0  0  0  0  0  0  0  0  0
   50.5080   53.5990   21.5210 C   0  0  0  0  0  0  0  0  0  0  0  0
   50.5860   54.3230   20.3320 C   0  0  0  0  0  0  0  0  0  0  0  0
   51.4310   53.8910   19.3100 C   0  0  0  0  0  0  0  0  0  0  0  0
   52.1850   52.7490   19.4770 C   0  0  0  0  0  0  0  0  0  0  0  0
   49.7740   55.5500   20.1550 C   0  0  0  0  0  0  0  0  0  0  0  0
   49.1220   55.7860   18.9440 C   0  0  0  0  0  0  0  0  0  0  0  0
   48.3620   56.9220   18.7800 C   0  0  0  0  0  0  0  0  0  0  0  0
   48.2530   57.8450   19.8250 C   0  0  0  0  0  0  0  0  0  0  0  0
   48.9110   57.6110   21.0350 C   0  0  0  0  0  0  0  0  0  0  0  0
   49.6660   56.4710   21.1980 C   0  0  0  0  0  0  0  0  0  0  0  0
   47.4690   59.0310   19.6530 C   0  0  0  0  0  0  0  0  0  0  0  0
   46.8460   59.9720   19.5170 N   0  0  0  0  0  0  0  0  0  0  0  0
  1  6  1  0  0  0  0
  1  3  1  0  0  0  0
  2  1  1  0  0  0  0
  3  4  2  0  0  0  0
  5  9  1  0  0  0  0
  5  6  1  0  0  0  0
  6  7  1  0  0  0  0
  8  5  2  0  0  0  0
 10 11  1  0  0  0  0
 10 12  1  0  0  0  0
 12 13  1  0  0  0  0
 13 14  1  0  0  0  0
 13  9  1  0  0  0  0
 15 12  2  0  0  0  0
 16 17  2  0  0  0  0
 16 21  1  0  0  0  0
 17 18  1  0  0  0  0
 18 19  2  0  0  0  0
 19 10  1  0  0  0  0
 20 19  1  0  0  0  0
 21 20  2  0  0  0  0
 22  3  1  0  0  0  0
 22 23  1  0  0  0  0
 24 23  1  0  0  0  0
 24 25  2  0  0  0  0
 26 25  1  0  0  0  0
 27 26  2  0  0  0  0
 28 29  2  0  0  0  0
 28 27  1  0  0  0  0
 29 24  1  0  0  0  0
 30 27  1  0  0  0  0
 30 35  2  0  0  0  0
 31 30  1  0  0  0  0
 32 31  2  0  0  0  0
 32 33  1  0  0  0  0
 33 34  2  0  0  0  0
 34 35  1  0  0  0  0
 36 33  1  0  0  0  0
 37 36  3  0  0  0  0
M  END
>  <MODEL>
5

>  <REMARK>
  Name = ZINC24870555
                            x       y       z     vdW  Elec       q    Type
                         _______ _______ _______ _____ _____    ______ ____

>  <TORSDO>
F 9

>  <minimizedAffinity>
-9.6587957001980946

$$$$
ZINC24870555
 OpenBabel10211214223D

 37 39  0  0  0  0  0  0  0  0999 V2000
   48.5430   55.9930   20.0760 N   0  0  0  0  0  0  0  0  0  0  0  0
   47.7860   55.2530   19.7740 H   0  0  0  0  0  0  0  0  0  0  0  0
   49.8320   55.6220   20.2090 C   0  0  0  0  0  0  0  0  0  0  0  0
   50.6650   56.4370   20.5430 O   0  0  0  0  0  0  0  0  0  0  0  0
   47.7800   58.1120   19.3060 C   0  0  0  0  0  0  0  0  0  0  0  0
   48.1660   57.3180   20.3250 N   0  0  0  0  0  0  0  0  0  0  0  0
   48.1850   57.7120   21.3520 H   0  0  0  0  0  0  0  0  0  0  0  0
   47.7590   57.6770   18.1730 O   0  0  0  0  0  0  0  0  0  0  0  0
   47.3750   59.5380   19.5730 C   0  0  0  0  0  0  0  0  0  0  0  0
   46.4760   62.1320   17.1270 N   0  0  0  0  0  0  0  0  0  0  0  0
   46.5280   61.5700   16.1820 H   0  0  0  0  0  0  0  0  0  0  0  0
   46.7170   61.5070   18.2960 C   0  0  0  0  0  0  0  0  0  0  0  0
   47.1130   60.2180   18.3030 N   0  0  0  0  0  0  0  0  0  0  0  0
   47.2390   59.6770   17.3530 H   0  0  0  0  0  0  0  0  0  0  0  0
   46.5780   62.1050   19.3450 O   0  0  0  0  0  0  0  0  0  0  0  0
   45.5350   66.1900   17.0910 C   0  0  0  0  0  0  0  0  0  0  0  0
   44.5300   65.2500   17.2340 C   0  0  0  0  0  0  0  0  0  0  0  0
   44.8390   63.9040   17.2460 C   0  0  0  0  0  0  0  0  0  0  0  0
   46.1600   63.4950   17.1150 C   0  0  0  0  0  0  0  0  0  0  0  0
   47.1660   64.4410   16.9770 C   0  0  0  0  0  0  0  0  0  0  0  0
   46.8500   65.7850   16.9600 C   0  0  0  0  0  0  0  0  0  0  0  0
   50.2380   54.1960   19.9420 C   0  0  0  0  0  0  0  0  0  0  0  0
   50.2080   53.9470   18.5350 O   0  0  0  0  0  0  0  0  0  0  0  0
   49.3850   52.9570   18.1010 C   0  0  0  0  0  0  0  0  0  0  0  0
   48.1930   53.2760   17.4640 C   0  0  0  0  0  0  0  0  0  0  0  0
   47.3580   52.2730   17.0180 C   0  0  0  0  0  0  0  0  0  0  0  0
   47.7070   50.9380   17.2170 C   0  0  0  0  0  0  0  0  0  0  0  0
   48.9030   50.6210   17.8600 C   0  0  0  0  0  0  0  0  0  0  0  0
   49.7360   51.6280   18.2990 C   0  0  0  0  0  0  0  0  0  0  0  0
   46.8090   49.8580   16.7440 C   0  0  0  0  0  0  0  0  0  0  0  0
   45.7210   49.4650   17.5240 C   0  0  0  0  0  0  0  0  0  0  0  0
   44.8820   48.4660   17.0840 C   0  0  0  0  0  0  0  0  0  0  0  0
   45.1280   47.8370   15.8600 C   0  0  0  0  0  0  0  0  0  0  0  0
   46.2220   48.2270   15.0830 C   0  0  0  0  0  0  0  0  0  0  0  0
   47.0560   49.2310   15.5220 C   0  0  0  0  0  0  0  0  0  0  0  0
   44.2610   46.7930   15.4040 C   0  0  0  0  0  0  0  0  0  0  0  0
   43.5730   45.9630   15.0440 N   0  0  0  0  0  0  0  0  0  0  0  0
  1  3  1  0  0  0  0
  1  6  1  0  0  0  0
  2  1  1  0  0  0  0
  3  4  2  0  0  0  0
  5  9  1  0  0  0  0
  5  6  1  0  0  0  0
  6  7  1  0  0  0  0
  8  5  2  0  0  0  0
 10 12  1  0  0  0  0
 11 10  1  0  0  0  0
 12 13  1  0  0  0  0
 12 15  2  0  0  0  0
 13  9  1  0  0  0  0
 14 13  1  0  0  0  0
 16 17  2  0  0  0  0
 17 18  1  0  0  0  0
 19 10  1  0  0  0  0
 19 18  2  0  0  0  0
 20 19  1  0  0  0  0
 21 20  2  0  0  0  0
 21 16  1  0  0  0  0
 22  3  1  0  0  0  0
 23 22  1  0  0  0  0
 24 29  1  0  0  0  0
 24 23  1  0  0  0  0
 25 24  2  0  0  0  0
 26 27  2  0  0  0  0
 26 25  1  0  0  0  0
 27 28  1  0  0  0  0
 28 29  2  0  0  0  0
 30 27  1  0  0  0  0
 30 31  2  0  0  0  0
 32 31  1  0  0  0  0
 33 32  2  0  0  0  0
 34 35  2  0  0  0  0
 34 33  1  0  0  0  0
 35 30  1  0  0  0  0
 36 33  1  0  0  0  0
 37 36  3  0  0  0  0
M  END
>  <MODEL>
6

>  <REMARK>
  Name = ZINC24870555
                            x       y       z     vdW  Elec       q    Type
                         _______ _______ _______ _____ _____    ______ ____

>  <TORSDO>
F 9

>  <minimizedAffinity>
-9.6217795371047661

$$$$
ZINC24870555
 OpenBabel10211214223D

 37 39  0  0  0  0  0  0  0  0999 V2000
   51.9880   54.2290   20.9480 N   0  0  0  0  0  0  0  0  0  0  0  0
   52.0920   54.7270   19.9720 H   0  0  0  0  0  0  0  0  0  0  0  0
   51.7340   54.9580   22.0530 C   0  0  0  0  0  0  0  0  0  0  0  0
   51.6200   54.4090   23.1280 O   0  0  0  0  0  0  0  0  0  0  0  0
   52.5400   52.1270   19.9750 C   0  0  0  0  0  0  0  0  0  0  0  0
   52.1220   52.8380   21.0420 N   0  0  0  0  0  0  0  0  0  0  0  0
   51.8850   52.3250   21.9860 H   0  0  0  0  0  0  0  0  0  0  0  0
   52.8000   52.6930   18.9340 O   0  0  0  0  0  0  0  0  0  0  0  0
   52.6820   50.6310   20.0760 C   0  0  0  0  0  0  0  0  0  0  0  0
   50.0090   49.3620   17.8930 N   0  0  0  0  0  0  0  0  0  0  0  0
   50.5900   48.8610   17.1040 H   0  0  0  0  0  0  0  0  0  0  0  0
   50.6450   49.9450   18.9280 C   0  0  0  0  0  0  0  0  0  0  0  0
   51.9910   49.9970   18.9510 N   0  0  0  0  0  0  0  0  0  0  0  0
   52.5720   49.5630   18.1230 H   0  0  0  0  0  0  0  0  0  0  0  0
   50.0030   50.4250   19.8430 O   0  0  0  0  0  0  0  0  0  0  0  0
   45.8490   49.4570   17.6810 C   0  0  0  0  0  0  0  0  0  0  0  0
   46.5900   50.5100   17.1750 C   0  0  0  0  0  0  0  0  0  0  0  0
   47.9690   50.4810   17.2440 C   0  0  0  0  0  0  0  0  0  0  0  0
   48.6120   49.3940   17.8220 C   0  0  0  0  0  0  0  0  0  0  0  0
   47.8660   48.3370   18.3240 C   0  0  0  0  0  0  0  0  0  0  0  0
   46.4870   48.3740   18.2570 C   0  0  0  0  0  0  0  0  0  0  0  0
   51.5910   56.4550   21.9520 C   0  0  0  0  0  0  0  0  0  0  0  0
   50.2320   56.8210   22.2010 O   0  0  0  0  0  0  0  0  0  0  0  0
   49.4940   57.2170   21.1320 C   0  0  0  0  0  0  0  0  0  0  0  0
   48.6270   58.2950   21.2500 C   0  0  0  0  0  0  0  0  0  0  0  0
   47.8800   58.7020   20.1650 C   0  0  0  0  0  0  0  0  0  0  0  0
   47.9870   58.0240   18.9520 C   0  0  0  0  0  0  0  0  0  0  0  0
   48.8570   56.9390   18.8380 C   0  0  0  0  0  0  0  0  0  0  0  0
   49.6050   56.5400   19.9250 C   0  0  0  0  0  0  0  0  0  0  0  0
   47.1810   58.4550   17.7850 C   0  0  0  0  0  0  0  0  0  0  0  0
   46.4890   59.6660   17.8270 C   0  0  0  0  0  0  0  0  0  0  0  0
   45.7440   60.0710   16.7420 C   0  0  0  0  0  0  0  0  0  0  0  0
   45.6720   59.2630   15.6030 C   0  0  0  0  0  0  0  0  0  0  0  0
   46.3620   58.0480   15.5660 C   0  0  0  0  0  0  0  0  0  0  0  0
   47.1100   57.6480   16.6490 C   0  0  0  0  0  0  0  0  0  0  0  0
   44.8920   59.6800   14.4770 C   0  0  0  0  0  0  0  0  0  0  0  0
   44.2740   60.0110   13.5830 N   0  0  0  0  0  0  0  0  0  0  0  0
  1  6  1  0  0  0  0
  1  3  1  0  0  0  0
  2  1  1  0  0  0  0
  3  4  2  0  0  0  0
  5  9  1  0  0  0  0
  5  6  1  0  0  0  0
  6  7  1  0  0  0  0
  8  5  2  0  0  0  0
 10 12  1  0  0  0  0
 11 10  1  0  0  0  0
 12 13  1  0  0  0  0
 12 15  2  0  0  0  0
 13  9  1  0  0  0  0
 14 13  1  0  0  0  0
 16 21  2  0  0  0  0
 17 18  2  0  0  0  0
 17 16  1  0  0  0  0
 18 19  1  0  0  0  0
 19 10  1  0  0  0  0
 19 20  2  0  0  0  0
 21 20  1  0  0  0  0
 22  3  1  0  0  0  0
 22 23  1  0  0  0  0
 24 25  1  0  0  0  0
 24 23  1  0  0  0  0
 26 25  2  0  0  0  0
 27 26  1  0  0  0  0
 28 27  2  0  0  0  0
 28 29  1  0  0  0  0
 29 24  2  0  0  0  0
 30 31  1  0  0  0  0
 30 27  1  0  0  0  0
 32 31  2  0  0  0  0
 33 32  1  0  0  0  0
 34 33  2  0  0  0  0
 34 35  1  0  0  0  0
 35 30  2  0  0  0  0
 36 33  1  0  0  0  0
 37 36  3  0  0  0  0
M  END
>  <MODEL>
7

>  <REMARK>
  Name = ZINC24870555
                            x       y       z     vdW  Elec       q    Type
                         _______ _______ _______ _____ _____    ______ ____

>  <TORSDO>
F 9

>  <minimizedAffinity>
-9.5436769773795049

$$$$
ZINC24870555
 OpenBabel10211214223D

 37 39  0  0  0  0  0  0  0  0999 V2000
   51.2980   54.4070   19.1570 N   0  0  0  0  0  0  0  0  0  0  0  0
   51.1430   54.2290   18.0830 H   0  0  0  0  0  0  0  0  0  0  0  0
   52.0100   53.5270   19.8900 C   0  0  0  0  0  0  0  0  0  0  0  0
   52.1810   53.7240   21.0740 O   0  0  0  0  0  0  0  0  0  0  0  0
   49.4240   55.6430   19.9500 C   0  0  0  0  0  0  0  0  0  0  0  0
   50.7560   55.5470   19.7640 N   0  0  0  0  0  0  0  0  0  0  0  0
   51.4170   56.3650   20.0890 H   0  0  0  0  0  0  0  0  0  0  0  0
   48.6960   54.7410   19.5910 O   0  0  0  0  0  0  0  0  0  0  0  0
   48.8400   56.8690   20.6010 C   0  0  0  0  0  0  0  0  0  0  0  0
   47.4960   59.7890   18.8170 N   0  0  0  0  0  0  0  0  0  0  0  0
   48.1030   59.7850   17.9000 H   0  0  0  0  0  0  0  0  0  0  0  0
   47.6700   58.8270   19.7440 C   0  0  0  0  0  0  0  0  0  0  0  0
   48.6500   57.9150   19.5930 N   0  0  0  0  0  0  0  0  0  0  0  0
   49.3080   57.9550   18.7130 H   0  0  0  0  0  0  0  0  0  0  0  0
   46.9420   58.7820   20.7170 O   0  0  0  0  0  0  0  0  0  0  0  0
   44.6590   62.7790   19.4250 C   0  0  0  0  0  0  0  0  0  0  0  0
   45.9580   62.9630   19.8600 C   0  0  0  0  0  0  0  0  0  0  0  0
   46.9010   61.9730   19.6610 C   0  0  0  0  0  0  0  0  0  0  0  0
   46.5430   60.7930   19.0210 C   0  0  0  0  0  0  0  0  0  0  0  0
   45.2390   60.6150   18.5810 C   0  0  0  0  0  0  0  0  0  0  0  0
   44.3000   61.6060   18.7880 C   0  0  0  0  0  0  0  0  0  0  0  0
   52.5930   52.3010   19.2380 C   0  0  0  0  0  0  0  0  0  0  0  0
   51.9910   51.1320   19.7960 O   0  0  0  0  0  0  0  0  0  0  0  0
   50.8970   50.6370   19.1590 C   0  0  0  0  0  0  0  0  0  0  0  0
   50.4280   51.2560   18.0080 C   0  0  0  0  0  0  0  0  0  0  0  0
   49.3200   50.7540   17.3570 C   0  0  0  0  0  0  0  0  0  0  0  0
   48.6660   49.6310   17.8620 C   0  0  0  0  0  0  0  0  0  0  0  0
   49.1380   49.0150   19.0200 C   0  0  0  0  0  0  0  0  0  0  0  0
   50.2490   49.5180   19.6640 C   0  0  0  0  0  0  0  0  0  0  0  0
   47.4720   49.0930   17.1680 C   0  0  0  0  0  0  0  0  0  0  0  0
   47.5850   48.6030   15.8660 C   0  0  0  0  0  0  0  0  0  0  0  0
   46.4780   48.0970   15.2220 C   0  0  0  0  0  0  0  0  0  0  0  0
   45.2390   48.0860   15.8690 C   0  0  0  0  0  0  0  0  0  0  0  0
   45.1260   48.5820   17.1700 C   0  0  0  0  0  0  0  0  0  0  0  0
   46.2360   49.0820   17.8140 C   0  0  0  0  0  0  0  0  0  0  0  0
   44.0850   47.5670   15.1980 C   0  0  0  0  0  0  0  0  0  0  0  0
   43.1700   47.1550   14.6640 N   0  0  0  0  0  0  0  0  0  0  0  0
  1  6  1  0  0  0  0
  1  3  1  0  0  0  0
  2  1  1  0  0  0  0
  3  4  2  0  0  0  0
  5  9  1  0  0  0  0
  6  5  1  0  0  0  0
  6  7  1  0  0  0  0
  8  5  2  0  0  0  0
 10 19  1  0  0  0  0
 10 12  1  0  0  0  0
 11 10  1  0  0  0  0
 12 15  2  0  0  0  0
 13 12  1  0  0  0  0
 13  9  1  0  0  0  0
 14 13  1  0  0  0  0
 16 17  2  0  0  0  0
 18 17  1  0  0  0  0
 19 18  2  0  0  0  0
 20 21  2  0  0  0  0
 20 19  1  0  0  0  0
 21 16  1  0  0  0  0
 22 23  1  0  0  0  0
 22  3  1  0  0  0  0
 24 29  1  0  0  0  0
 24 23  1  0  0  0  0
 25 24  2  0  0  0  0
 26 27  2  0  0  0  0
 26 25  1  0  0  0  0
 27 28  1  0  0  0  0
 28 29  2  0  0  0  0
 30 35  2  0  0  0  0
 30 27  1  0  0  0  0
 31 30  1  0  0  0  0
 32 31  2  0  0  0  0
 32 33  1  0  0  0  0
 33 34  2  0  0  0  0
 34 35  1  0  0  0  0
 36 33  1  0  0  0  0
 37 36  3  0  0  0  0
M  END
>  <MODEL>
8

>  <REMARK>
  Name = ZINC24870555
                            x       y       z     vdW  Elec       q    Type
                         _______ _______ _______ _____ _____    ______ ____

>  <TORSDO>
F 9

>  <minimizedAffinity>
-9.5069367969030907

$$$$
ZINC24870555
 OpenBabel10211214223D

 37 39  0  0  0  0  0  0  0  0999 V2000
   49.3810   57.0960   21.5190 N   0  0  0  0  0  0  0  0  0  0  0  0
   48.8470   56.2740   22.0200 H   0  0  0  0  0  0  0  0  0  0  0  0
   50.7100   57.2400   21.6920 C   0  0  0  0  0  0  0  0  0  0  0  0
   51.2970   58.1460   21.1410 O   0  0  0  0  0  0  0  0  0  0  0  0
   48.2660   57.6100   19.4790 C   0  0  0  0  0  0  0  0  0  0  0  0
   48.6790   57.9930   20.7040 N   0  0  0  0  0  0  0  0  0  0  0  0
   48.4650   59.0110   21.0630 H   0  0  0  0  0  0  0  0  0  0  0  0
   48.5040   56.4870   19.0830 O   0  0  0  0  0  0  0  0  0  0  0  0
   47.5130   58.5740   18.6010 C   0  0  0  0  0  0  0  0  0  0  0  0
   46.8900   62.1480   19.2010 N   0  0  0  0  0  0  0  0  0  0  0  0
   47.2950   62.2750   20.2160 H   0  0  0  0  0  0  0  0  0  0  0  0
   46.9590   60.9480   18.5930 C   0  0  0  0  0  0  0  0  0  0  0  0
   47.4380   59.8800   19.2610 N   0  0  0  0  0  0  0  0  0  0  0  0
   47.7730   59.9890   20.3030 H   0  0  0  0  0  0  0  0  0  0  0  0
   46.5890   60.8270   17.4410 O   0  0  0  0  0  0  0  0  0  0  0  0
   45.1430   65.3800   17.2350 C   0  0  0  0  0  0  0  0  0  0  0  0
   46.4900   65.1150   17.0650 C   0  0  0  0  0  0  0  0  0  0  0  0
   47.0720   64.0450   17.7160 C   0  0  0  0  0  0  0  0  0  0  0  0
   46.3030   63.2340   18.5410 C   0  0  0  0  0  0  0  0  0  0  0  0
   44.9510   63.4990   18.7040 C   0  0  0  0  0  0  0  0  0  0  0  0
   44.3760   64.5740   18.0550 C   0  0  0  0  0  0  0  0  0  0  0  0
   51.4650   56.2760   22.5690 C   0  0  0  0  0  0  0  0  0  0  0  0
   52.3500   55.4930   21.7660 O   0  0  0  0  0  0  0  0  0  0  0  0
   51.8180   54.4120   21.1370 C   0  0  0  0  0  0  0  0  0  0  0  0
   51.6390   54.4310   19.7600 C   0  0  0  0  0  0  0  0  0  0  0  0
   51.1050   53.3340   19.1180 C   0  0  0  0  0  0  0  0  0  0  0  0
   50.7340   52.2090   19.8540 C   0  0  0  0  0  0  0  0  0  0  0  0
   50.9120   52.1950   21.2370 C   0  0  0  0  0  0  0  0  0  0  0  0
   51.4520   53.2930   21.8720 C   0  0  0  0  0  0  0  0  0  0  0  0
   50.1530   51.0310   19.1680 C   0  0  0  0  0  0  0  0  0  0  0  0
   50.1910   49.7790   19.7810 C   0  0  0  0  0  0  0  0  0  0  0  0
   49.6460   48.6840   19.1480 C   0  0  0  0  0  0  0  0  0  0  0  0
   49.0660   48.8260   17.8840 C   0  0  0  0  0  0  0  0  0  0  0  0
   49.0350   50.0800   17.2680 C   0  0  0  0  0  0  0  0  0  0  0  0
   49.5750   51.1740   17.9060 C   0  0  0  0  0  0  0  0  0  0  0  0
   48.5070   47.6870   17.2200 C   0  0  0  0  0  0  0  0  0  0  0  0
   48.0630   46.7840   16.6930 N   0  0  0  0  0  0  0  0  0  0  0  0
  1  3  1  0  0  0  0
  1  2  1  0  0  0  0
  3 22  1  0  0  0  0
  4  3  2  0  0  0  0
  5  6  1  0  0  0  0
  6  7  1  0  0  0  0
  6  1  1  0  0  0  0
  8  5  2  0  0  0  0
  9 13  1  0  0  0  0
  9  5  1  0  0  0  0
 10 11  1  0  0  0  0
 12 10  1  0  0  0  0
 12 13  1  0  0  0  0
 13 14  1  0  0  0  0
 15 12  2  0  0  0  0
 16 21  1  0  0  0  0
 17 16  2  0  0  0  0
 17 18  1  0  0  0  0
 18 19  2  0  0  0  0
 19 20  1  0  0  0  0
 19 10  1  0  0  0  0
 21 20  2  0  0  0  0
 23 22  1  0  0  0  0
 24 23  1  0  0  0  0
 24 29  2  0  0  0  0
 25 24  1  0  0  0  0
 26 25  2  0  0  0  0
 26 27  1  0  0  0  0
 27 28  2  0  0  0  0
 28 29  1  0  0  0  0
 30 31  1  0  0  0  0
 30 27  1  0  0  0  0
 32 31  2  0  0  0  0
 33 32  1  0  0  0  0
 34 33  2  0  0  0  0
 34 35  1  0  0  0  0
 35 30  2  0  0  0  0
 36 33  1  0  0  0  0
 37 36  3  0  0  0  0
M  END
>  <MODEL>
9

>  <REMARK>
  Name = ZINC24870555
                            x       y       z     vdW  Elec       q    Type
                         _______ _______ _______ _____ _____    ______ ____

>  <TORSDO>
F 9

>  <minimizedAffinity>
-9.4135954847782113

$$$$
ZINC07802132
 OpenBabel10211214233D

 25 27  0  0  0  0  0  0  0  0999 V2000
   48.7460   53.6660   18.1680 C   0  0  0  0  0  0  0  0  0  0  0  0
   49.0670   52.3660   18.3190 N   0  0  0  0  0  0  0  0  0  0  0  0
   49.5880   52.0810   19.0850 H   0  0  0  0  0  0  0  0  0  0  0  0
   48.1580   54.0350   17.1700 O   0  0  0  0  0  0  0  0  0  0  0  0
   48.6460   51.4280   17.3710 C   0  0  0  0  0  0  0  0  0  0  0  0
   49.4580   51.1220   16.2860 C   0  0  0  0  0  0  0  0  0  0  0  0
   49.0390   50.1950   15.3540 C   0  0  0  0  0  0  0  0  0  0  0  0
   47.8110   49.5670   15.4960 C   0  0  0  0  0  0  0  0  0  0  0  0
   47.0010   49.8690   16.5750 C   0  0  0  0  0  0  0  0  0  0  0  0
   45.7270   49.0560   16.5010 C   0  0  0  0  0  0  0  0  0  0  0  0
   46.0330   47.9130   15.5100 C   0  0  0  0  0  0  0  0  0  0  0  0
   47.1360   48.5300   14.6230 C   0  0  0  0  0  0  0  0  0  0  0  0
   47.4210   50.7940   17.5150 C   0  0  0  0  0  0  0  0  0  0  0  0
   48.3350   55.7900   19.3980 C   0  0  0  0  0  0  0  0  0  0  0  0
   48.6770   56.6990   20.3730 C   0  0  0  0  0  0  0  0  0  0  0  0
   49.7950   56.4770   21.1730 C   0  0  0  0  0  0  0  0  0  0  0  0
   50.5690   55.3350   20.9900 C   0  0  0  0  0  0  0  0  0  0  0  0
   50.2320   54.4220   20.0170 C   0  0  0  0  0  0  0  0  0  0  0  0
   49.1100   54.6420   19.2120 C   0  0  0  0  0  0  0  0  0  0  0  0
   50.1370   57.3970   22.1580 N   0  0  0  0  0  0  0  0  0  0  0  0
   50.6090   58.2110   21.9180 H   0  0  0  0  0  0  0  0  0  0  0  0
   49.9040   57.2280   23.0830 H   0  0  0  0  0  0  0  0  0  0  0  0
   51.7560   55.1020   21.8420 N   0  0  0  0  0  0  0  0  0  0  0  0
   51.9260   54.0140   22.3670 O   0  0  0  0  0  0  0  0  0  0  0  0
   52.5640   55.9950   22.0190 O   0  0  0  0  0  0  0  0  0  0  0  0
  1  2  1  0  0  0  0
  1 19  1  0  0  0  0
  2  3  1  0  0  0  0
  4  1  2  0  0  0  0
  5 13  1  0  0  0  0
  5  2  1  0  0  0  0
  6  5  2  0  0  0  0
  7  8  2  0  0  0  0
  7  6  1  0  0  0  0
  8  9  1  0  0  0  0
  9 13  2  0  0  0  0
 10  9  1  0  0  0  0
 11 10  1  0  0  0  0
 12  8  1  0  0  0  0
 12 11  1  0  0  0  0
 14 15  1  0  0  0  0
 15 16  2  0  0  0  0
 16 20  1  0  0  0  0
 17 16  1  0  0  0  0
 17 23  1  0  0  0  0
 18 17  2  0  0  0  0
 19 14  2  0  0  0  0
 19 18  1  0  0  0  0
 20 22  1  0  0  0  0
 21 20  1  0  0  0  0
 23 25  2  0  0  0  0
 23 24  2  0  0  0  0
M  END
>  <MODEL>
1

>  <REMARK>
  Name = ZINC07802132
                            x       y       z     vdW  Elec       q    Type
                         _______ _______ _______ _____ _____    ______ ____

>  <TORSDO>
F 4

>  <minimizedAffinity>
-8.6134573412338256

$$$$
ZINC07802132
 OpenBabel10211214233D

 25 27  0  0  0  0  0  0  0  0999 V2000
   48.6950   48.9470   18.0620 C   0  0  0  0  0  0  0  0  0  0  0  0
   47.5370   49.5790   17.7910 N   0  0  0  0  0  0  0  0  0  0  0  0
   47.3780   50.4700   18.1380 H   0  0  0  0  0  0  0  0  0  0  0  0
   48.8640   47.8010   17.6910 O   0  0  0  0  0  0  0  0  0  0  0  0
   46.5640   48.9500   17.0080 C   0  0  0  0  0  0  0  0  0  0  0  0
   45.4370   48.4000   17.6060 C   0  0  0  0  0  0  0  0  0  0  0  0
   44.4790   47.7810   16.8290 C   0  0  0  0  0  0  0  0  0  0  0  0
   44.6360   47.7060   15.4540 C   0  0  0  0  0  0  0  0  0  0  0  0
   45.7560   48.2520   14.8560 C   0  0  0  0  0  0  0  0  0  0  0  0
   45.6910   48.0400   13.3580 C   0  0  0  0  0  0  0  0  0  0  0  0
   44.2150   47.6990   13.0630 C   0  0  0  0  0  0  0  0  0  0  0  0
   43.7420   47.0890   14.3990 C   0  0  0  0  0  0  0  0  0  0  0  0
   46.7160   48.8790   15.6310 C   0  0  0  0  0  0  0  0  0  0  0  0
   50.1580   49.1690   20.0630 C   0  0  0  0  0  0  0  0  0  0  0  0
   51.1510   49.8200   20.7590 C   0  0  0  0  0  0  0  0  0  0  0  0
   51.7550   50.9520   20.2170 C   0  0  0  0  0  0  0  0  0  0  0  0
   51.3590   51.4270   18.9700 C   0  0  0  0  0  0  0  0  0  0  0  0
   50.3680   50.7790   18.2690 C   0  0  0  0  0  0  0  0  0  0  0  0
   49.7590   49.6430   18.8100 C   0  0  0  0  0  0  0  0  0  0  0  0
   52.7580   51.6070   20.9230 N   0  0  0  0  0  0  0  0  0  0  0  0
   53.6120   51.1690   21.0720 H   0  0  0  0  0  0  0  0  0  0  0  0
   52.6060   52.5010   21.2670 H   0  0  0  0  0  0  0  0  0  0  0  0
   52.0040   52.6290   18.3970 N   0  0  0  0  0  0  0  0  0  0  0  0
   51.4080   53.6920   18.3850 O   0  0  0  0  0  0  0  0  0  0  0  0
   53.1300   52.5570   17.9390 O   0  0  0  0  0  0  0  0  0  0  0  0
  1 19  1  0  0  0  0
  2  1  1  0  0  0  0
  2  3  1  0  0  0  0
  4  1  2  0  0  0  0
  5  6  1  0  0  0  0
  5  2  1  0  0  0  0
  7  6  2  0  0  0  0
  8  7  1  0  0  0  0
  9  8  2  0  0  0  0
  9 13  1  0  0  0  0
 10  9  1  0  0  0  0
 11 10  1  0  0  0  0
 11 12  1  0  0  0  0
 12  8  1  0  0  0  0
 13  5  2  0  0  0  0
 14 15  2  0  0  0  0
 16 15  1  0  0  0  0
 16 20  1  0  0  0  0
 17 16  2  0  0  0  0
 18 19  2  0  0  0  0
 18 17  1  0  0  0  0
 19 14  1  0  0  0  0
 20 21  1  0  0  0  0
 20 22  1  0  0  0  0
 23 17  1  0  0  0  0
 24 23  2  0  0  0  0
 25 23  2  0  0  0  0
M  END
>  <MODEL>
2

>  <REMARK>
  Name = ZINC07802132
                            x       y       z     vdW  Elec       q    Type
                         _______ _______ _______ _____ _____    ______ ____

>  <TORSDO>
F 4

>  <minimizedAffinity>
-8.5689844560765387

$$$$
ZINC07802132
 OpenBabel10211214233D

 25 27  0  0  0  0  0  0  0  0999 V2000
   47.9380   57.6280   20.0270 C   0  0  0  0  0  0  0  0  0  0  0  0
   48.2500   58.5020   19.0510 N   0  0  0  0  0  0  0  0  0  0  0  0
   49.1030   58.4350   18.5940 H   0  0  0  0  0  0  0  0  0  0  0  0
   46.9020   57.7580   20.6510 O   0  0  0  0  0  0  0  0  0  0  0  0
   47.3440   59.5060   18.6950 C   0  0  0  0  0  0  0  0  0  0  0  0
   46.6120   59.3990   17.5190 C   0  0  0  0  0  0  0  0  0  0  0  0
   45.7190   60.3910   17.1720 C   0  0  0  0  0  0  0  0  0  0  0  0
   45.5480   61.4960   17.9920 C   0  0  0  0  0  0  0  0  0  0  0  0
   46.2750   61.6060   19.1630 C   0  0  0  0  0  0  0  0  0  0  0  0
   45.9100   62.8920   19.8730 C   0  0  0  0  0  0  0  0  0  0  0  0
   44.5740   63.3370   19.2400 C   0  0  0  0  0  0  0  0  0  0  0  0
   44.6450   62.7010   17.8350 C   0  0  0  0  0  0  0  0  0  0  0  0
   47.1680   60.6100   19.5170 C   0  0  0  0  0  0  0  0  0  0  0  0
   48.6860   55.2750   19.7180 C   0  0  0  0  0  0  0  0  0  0  0  0
   49.5420   54.2380   20.0120 C   0  0  0  0  0  0  0  0  0  0  0  0
   50.5710   54.4230   20.9320 C   0  0  0  0  0  0  0  0  0  0  0  0
   50.7390   55.6560   21.5550 C   0  0  0  0  0  0  0  0  0  0  0  0
   49.8880   56.6970   21.2640 C   0  0  0  0  0  0  0  0  0  0  0  0
   48.8530   56.5150   20.3420 C   0  0  0  0  0  0  0  0  0  0  0  0
   51.4340   53.3720   21.2260 N   0  0  0  0  0  0  0  0  0  0  0  0
   51.7660   53.2570   22.1310 H   0  0  0  0  0  0  0  0  0  0  0  0
   51.7040   52.7550   20.5290 H   0  0  0  0  0  0  0  0  0  0  0  0
   51.8350   55.8480   22.5310 N   0  0  0  0  0  0  0  0  0  0  0  0
   52.7950   56.5400   22.2400 O   0  0  0  0  0  0  0  0  0  0  0  0
   51.7760   55.3160   23.6250 O   0  0  0  0  0  0  0  0  0  0  0  0
  1 19  1  0  0  0  0
  1  4  2  0  0  0  0
  2  1  1  0  0  0  0
  3  2  1  0  0  0  0
  5  2  1  0  0  0  0
  5 13  2  0  0  0  0
  6  5  1  0  0  0  0
  7  6  2  0  0  0  0
  7  8  1  0  0  0  0
  8  9  2  0  0  0  0
  9 13  1  0  0  0  0
  9 10  1  0  0  0  0
 11 10  1  0  0  0  0
 12  8  1  0  0  0  0
 12 11  1  0  0  0  0
 14 15  2  0  0  0  0
 14 19  1  0  0  0  0
 15 16  1  0  0  0  0
 16 20  1  0  0  0  0
 16 17  2  0  0  0  0
 17 23  1  0  0  0  0
 18 17  1  0  0  0  0
 19 18  2  0  0  0  0
 20 21  1  0  0  0  0
 22 20  1  0  0  0  0
 23 25  2  0  0  0  0
 24 23  2  0  0  0  0
M  END
>  <MODEL>
3

>  <REMARK>
  Name = ZINC07802132
                            x       y       z     vdW  Elec       q    Type
                         _______ _______ _______ _____ _____    ______ ____

>  <TORSDO>
F 4

>  <minimizedAffinity>
-8.4976545095086511

$$$$
ZINC07802132
 OpenBabel10211214233D

 25 27  0  0  0  0  0  0  0  0999 V2000
   49.7260   52.8590   18.7870 C   0  0  0  0  0  0  0  0  0  0  0  0
   49.8520   51.5210   18.7020 N   0  0  0  0  0  0  0  0  0  0  0  0
   50.3580   51.0370   19.3730 H   0  0  0  0  0  0  0  0  0  0  0  0
   49.1550   53.4740   17.9060 O   0  0  0  0  0  0  0  0  0  0  0  0
   49.2500   50.8270   17.6460 C   0  0  0  0  0  0  0  0  0  0  0  0
   49.9610   50.5810   16.4790 C   0  0  0  0  0  0  0  0  0  0  0  0
   49.3640   49.8970   15.4410 C   0  0  0  0  0  0  0  0  0  0  0  0
   48.0560   49.4530   15.5580 C   0  0  0  0  0  0  0  0  0  0  0  0
   47.3450   49.6950   16.7180 C   0  0  0  0  0  0  0  0  0  0  0  0
   45.9530   49.1150   16.5970 C   0  0  0  0  0  0  0  0  0  0  0  0
   46.0330   48.1160   15.4230 C   0  0  0  0  0  0  0  0  0  0  0  0
   47.1890   48.6910   14.5770 C   0  0  0  0  0  0  0  0  0  0  0  0
   47.9430   50.3780   17.7640 C   0  0  0  0  0  0  0  0  0  0  0  0
   50.9600   52.8780   20.9470 C   0  0  0  0  0  0  0  0  0  0  0  0
   51.4790   53.5540   22.0290 C   0  0  0  0  0  0  0  0  0  0  0  0
   51.3270   54.9340   22.1270 C   0  0  0  0  0  0  0  0  0  0  0  0
   50.6520   55.6360   21.1330 C   0  0  0  0  0  0  0  0  0  0  0  0
   50.1320   54.9670   20.0490 C   0  0  0  0  0  0  0  0  0  0  0  0
   50.2820   53.5800   19.9470 C   0  0  0  0  0  0  0  0  0  0  0  0
   51.8530   55.6130   23.2210 N   0  0  0  0  0  0  0  0  0  0  0  0
   52.8000   55.8250   23.2510 H   0  0  0  0  0  0  0  0  0  0  0  0
   51.2750   55.8750   23.9540 H   0  0  0  0  0  0  0  0  0  0  0  0
   50.4930   57.1030   21.2400 N   0  0  0  0  0  0  0  0  0  0  0  0
   51.1350   57.8410   20.5120 O   0  0  0  0  0  0  0  0  0  0  0  0
   49.7210   57.5740   22.0560 O   0  0  0  0  0  0  0  0  0  0  0  0
  1 19  1  0  0  0  0
  2  1  1  0  0  0  0
  2  3  1  0  0  0  0
  4  1  2  0  0  0  0
  5 13  1  0  0  0  0
  5  2  1  0  0  0  0
  6  5  2  0  0  0  0
  7  8  2  0  0  0  0
  7  6  1  0  0  0  0
  8  9  1  0  0  0  0
  9 13  2  0  0  0  0
 10  9  1  0  0  0  0
 11 10  1  0  0  0  0
 12 11  1  0  0  0  0
 12  8  1  0  0  0  0
 14 15  2  0  0  0  0
 15 16  1  0  0  0  0
 16 20  1  0  0  0  0
 17 23  1  0  0  0  0
 17 16  2  0  0  0  0
 18 17  1  0  0  0  0
 19 18  2  0  0  0  0
 19 14  1  0  0  0  0
 20 21  1  0  0  0  0
 20 22  1  0  0  0  0
 23 25  2  0  0  0  0
 24 23  2  0  0  0  0
M  END
>  <MODEL>
4

>  <REMARK>
  Name = ZINC07802132
                            x       y       z     vdW  Elec       q    Type
                         _______ _______ _______ _____ _____    ______ ____

>  <TORSDO>
F 4

>  <minimizedAffinity>
-8.4078158921121098

$$$$
ZINC07802132
 OpenBabel10211214233D

 25 27  0  0  0  0  0  0  0  0999 V2000
   50.4150   55.1750   20.1010 C   0  0  0  0  0  0  0  0  0  0  0  0
   49.1090   55.3400   19.8120 N   0  0  0  0  0  0  0  0  0  0  0  0
   48.5570   54.5690   19.6080 H   0  0  0  0  0  0  0  0  0  0  0  0
   51.1240   56.1460   20.2840 O   0  0  0  0  0  0  0  0  0  0  0  0
   48.5500   56.6220   19.8090 C   0  0  0  0  0  0  0  0  0  0  0  0
   48.3840   57.3130   21.0030 C   0  0  0  0  0  0  0  0  0  0  0  0
   47.8330   58.5770   20.9940 C   0  0  0  0  0  0  0  0  0  0  0  0
   47.4420   59.1610   19.7980 C   0  0  0  0  0  0  0  0  0  0  0  0
   47.6050   58.4760   18.6090 C   0  0  0  0  0  0  0  0  0  0  0  0
   47.1050   59.3230   17.4580 C   0  0  0  0  0  0  0  0  0  0  0  0
   47.0270   60.7590   18.0180 C   0  0  0  0  0  0  0  0  0  0  0  0
   46.8210   60.5150   19.5280 C   0  0  0  0  0  0  0  0  0  0  0  0
   48.1640   57.2100   18.6130 C   0  0  0  0  0  0  0  0  0  0  0  0
   51.3660   53.3030   21.4370 C   0  0  0  0  0  0  0  0  0  0  0  0
   51.8970   52.0360   21.5220 C   0  0  0  0  0  0  0  0  0  0  0  0
   52.0560   51.2690   20.3710 C   0  0  0  0  0  0  0  0  0  0  0  0
   51.6780   51.7790   19.1320 C   0  0  0  0  0  0  0  0  0  0  0  0
   51.1450   53.0440   19.0410 C   0  0  0  0  0  0  0  0  0  0  0  0
   50.9850   53.8180   20.1950 C   0  0  0  0  0  0  0  0  0  0  0  0
   52.5930   49.9890   20.4600 N   0  0  0  0  0  0  0  0  0  0  0  0
   52.5510   49.3910   19.6960 H   0  0  0  0  0  0  0  0  0  0  0  0
   53.0090   49.6920   21.2840 H   0  0  0  0  0  0  0  0  0  0  0  0
   51.8470   50.9590   17.9110 N   0  0  0  0  0  0  0  0  0  0  0  0
   52.9650   50.6440   17.5400 O   0  0  0  0  0  0  0  0  0  0  0  0
   50.8710   50.6000   17.2780 O   0  0  0  0  0  0  0  0  0  0  0  0
  1 19  1  0  0  0  0
  1  4  2  0  0  0  0
  2  1  1  0  0  0  0
  3  2  1  0  0  0  0
  5  2  1  0  0  0  0
  5  6  2  0  0  0  0
  7  6  1  0  0  0  0
  8  7  2  0  0  0  0
  9 13  2  0  0  0  0
  9  8  1  0  0  0  0
 10 11  1  0  0  0  0
 10  9  1  0  0  0  0
 11 12  1  0  0  0  0
 12  8  1  0  0  0  0
 13  5  1  0  0  0  0
 14 15  1  0  0  0  0
 16 20  1  0  0  0  0
 16 15  2  0  0  0  0
 17 16  1  0  0  0  0
 18 17  2  0  0  0  0
 18 19  1  0  0  0  0
 19 14  2  0  0  0  0
 20 22  1  0  0  0  0
 21 20  1  0  0  0  0
 23 17  1  0  0  0  0
 24 23  2  0  0  0  0
 25 23  2  0  0  0  0
M  END
>  <MODEL>
5

>  <REMARK>
  Name = ZINC07802132
                            x       y       z     vdW  Elec       q    Type
                         _______ _______ _______ _____ _____    ______ ____

>  <TORSDO>
F 4

>  <minimizedAffinity>
-8.1441365470406968

$$$$
ZINC07802132
 OpenBabel10211214233D

 25 27  0  0  0  0  0  0  0  0999 V2000
   49.4230   50.1380   18.6140 C   0  0  0  0  0  0  0  0  0  0  0  0
   49.5170   51.3200   17.9760 N   0  0  0  0  0  0  0  0  0  0  0  0
   49.0640   51.4510   17.1280 H   0  0  0  0  0  0  0  0  0  0  0  0
   50.0510   49.9480   19.6380 O   0  0  0  0  0  0  0  0  0  0  0  0
   50.2670   52.3600   18.5350 C   0  0  0  0  0  0  0  0  0  0  0  0
   51.6470   52.3890   18.3730 C   0  0  0  0  0  0  0  0  0  0  0  0
   52.3820   53.4170   18.9260 C   0  0  0  0  0  0  0  0  0  0  0  0
   51.7500   54.4210   19.6440 C   0  0  0  0  0  0  0  0  0  0  0  0
   50.3780   54.3950   19.8070 C   0  0  0  0  0  0  0  0  0  0  0  0
   49.9370   55.5910   20.6220 C   0  0  0  0  0  0  0  0  0  0  0  0
   51.1230   56.5780   20.5650 C   0  0  0  0  0  0  0  0  0  0  0  0
   52.3260   55.6370   20.3380 C   0  0  0  0  0  0  0  0  0  0  0  0
   49.6360   53.3680   19.2490 C   0  0  0  0  0  0  0  0  0  0  0  0
   48.9890   48.3110   16.9810 C   0  0  0  0  0  0  0  0  0  0  0  0
   48.1810   47.3180   16.4760 C   0  0  0  0  0  0  0  0  0  0  0  0
   46.9360   47.0720   17.0500 C   0  0  0  0  0  0  0  0  0  0  0  0
   46.5050   47.8290   18.1360 C   0  0  0  0  0  0  0  0  0  0  0  0
   47.3090   48.8230   18.6460 C   0  0  0  0  0  0  0  0  0  0  0  0
   48.5590   49.0730   18.0720 C   0  0  0  0  0  0  0  0  0  0  0  0
   46.1230   46.0670   16.5380 N   0  0  0  0  0  0  0  0  0  0  0  0
   45.2490   46.2870   16.1770 H   0  0  0  0  0  0  0  0  0  0  0  0
   46.4270   45.1460   16.5410 H   0  0  0  0  0  0  0  0  0  0  0  0
   45.1820   47.5640   18.7440 N   0  0  0  0  0  0  0  0  0  0  0  0
   44.1660   47.9020   18.1630 O   0  0  0  0  0  0  0  0  0  0  0  0
   45.1090   47.0080   19.8250 O   0  0  0  0  0  0  0  0  0  0  0  0
  1  4  2  0  0  0  0
  2  5  1  0  0  0  0
  2  1  1  0  0  0  0
  3  2  1  0  0  0  0
  5 13  1  0  0  0  0
  6  5  2  0  0  0  0
  6  7  1  0  0  0  0
  7  8  2  0  0  0  0
  8  9  1  0  0  0  0
  8 12  1  0  0  0  0
  9 10  1  0  0  0  0
 11 10  1  0  0  0  0
 12 11  1  0  0  0  0
 13  9  2  0  0  0  0
 14 19  1  0  0  0  0
 15 14  2  0  0  0  0
 15 16  1  0  0  0  0
 16 17  2  0  0  0  0
 17 18  1  0  0  0  0
 17 23  1  0  0  0  0
 19  1  1  0  0  0  0
 19 18  2  0  0  0  0
 20 22  1  0  0  0  0
 20 16  1  0  0  0  0
 21 20  1  0  0  0  0
 23 25  2  0  0  0  0
 24 23  2  0  0  0  0
M  END
>  <MODEL>
6

>  <REMARK>
  Name = ZINC07802132
                            x       y       z     vdW  Elec       q    Type
                         _______ _______ _______ _____ _____    ______ ____

>  <TORSDO>
F 4

>  <minimizedAffinity>
-8.1372483308816168

$$$$
ZINC07802132
 OpenBabel10211214233D

 25 27  0  0  0  0  0  0  0  0999 V2000
   47.1400   59.8100   19.4330 C   0  0  0  0  0  0  0  0  0  0  0  0
   47.0570   58.9590   20.4740 N   0  0  0  0  0  0  0  0  0  0  0  0
   46.3970   59.1060   21.1700 H   0  0  0  0  0  0  0  0  0  0  0  0
   48.0150   59.6700   18.6010 O   0  0  0  0  0  0  0  0  0  0  0  0
   47.9210   57.8620   20.5510 C   0  0  0  0  0  0  0  0  0  0  0  0
   47.6750   56.7260   19.7910 C   0  0  0  0  0  0  0  0  0  0  0  0
   48.5310   55.6470   19.8700 C   0  0  0  0  0  0  0  0  0  0  0  0
   49.6370   55.6920   20.7060 C   0  0  0  0  0  0  0  0  0  0  0  0
   49.8850   56.8210   21.4630 C   0  0  0  0  0  0  0  0  0  0  0  0
   51.1400   56.6200   22.2840 C   0  0  0  0  0  0  0  0  0  0  0  0
   51.8700   55.4320   21.6230 C   0  0  0  0  0  0  0  0  0  0  0  0
   50.7090   54.6550   20.9660 C   0  0  0  0  0  0  0  0  0  0  0  0
   49.0310   57.9080   21.3820 C   0  0  0  0  0  0  0  0  0  0  0  0
   46.5540   62.2220   19.6140 C   0  0  0  0  0  0  0  0  0  0  0  0
   45.6470   63.2510   19.4920 C   0  0  0  0  0  0  0  0  0  0  0  0
   44.3490   62.9880   19.0620 C   0  0  0  0  0  0  0  0  0  0  0  0
   43.9640   61.6870   18.7520 C   0  0  0  0  0  0  0  0  0  0  0  0
   44.8660   60.6550   18.8720 C   0  0  0  0  0  0  0  0  0  0  0  0
   46.1700   60.9140   19.3040 C   0  0  0  0  0  0  0  0  0  0  0  0
   43.4350   64.0300   18.9390 N   0  0  0  0  0  0  0  0  0  0  0  0
   43.6360   64.7840   18.3620 H   0  0  0  0  0  0  0  0  0  0  0  0
   42.5990   64.0040   19.4290 H   0  0  0  0  0  0  0  0  0  0  0  0
   42.5840   61.4120   18.2950 N   0  0  0  0  0  0  0  0  0  0  0  0
   41.8190   60.7860   19.0080 O   0  0  0  0  0  0  0  0  0  0  0  0
   42.2120   61.8130   17.2070 O   0  0  0  0  0  0  0  0  0  0  0  0
  1  2  1  0  0  0  0
  2  5  1  0  0  0  0
  2  3  1  0  0  0  0
  4  1  2  0  0  0  0
  5 13  2  0  0  0  0
  6  7  2  0  0  0  0
  6  5  1  0  0  0  0
  7  8  1  0  0  0  0
  8 12  1  0  0  0  0
  8  9  2  0  0  0  0
  9 10  1  0  0  0  0
 11 10  1  0  0  0  0
 12 11  1  0  0  0  0
 13  9  1  0  0  0  0
 15 14  1  0  0  0  0
 16 15  2  0  0  0  0
 17 18  2  0  0  0  0
 17 16  1  0  0  0  0
 18 19  1  0  0  0  0
 19  1  1  0  0  0  0
 19 14  2  0  0  0  0
 20 16  1  0  0  0  0
 20 22  1  0  0  0  0
 21 20  1  0  0  0  0
 23 17  1  0  0  0  0
 23 24  2  0  0  0  0
 25 23  2  0  0  0  0
M  END
>  <MODEL>
7

>  <REMARK>
  Name = ZINC07802132
                            x       y       z     vdW  Elec       q    Type
                         _______ _______ _______ _____ _____    ______ ____

>  <TORSDO>
F 4

>  <minimizedAffinity>
-8.1336246113895978

$$$$
ZINC07802132
 OpenBabel10211214233D

 25 27  0  0  0  0  0  0  0  0999 V2000
   50.0490   52.0460   18.9660 C   0  0  0  0  0  0  0  0  0  0  0  0
   49.9030   53.2790   18.4430 N   0  0  0  0  0  0  0  0  0  0  0  0
   49.6090   53.3860   17.5250 H   0  0  0  0  0  0  0  0  0  0  0  0
   50.4900   51.9110   20.0910 O   0  0  0  0  0  0  0  0  0  0  0  0
   50.1750   54.4070   19.2250 C   0  0  0  0  0  0  0  0  0  0  0  0
   49.1520   55.0290   19.9300 C   0  0  0  0  0  0  0  0  0  0  0  0
   49.4250   56.1400   20.7000 C   0  0  0  0  0  0  0  0  0  0  0  0
   50.7160   56.6400   20.7730 C   0  0  0  0  0  0  0  0  0  0  0  0
   51.7360   56.0240   20.0730 C   0  0  0  0  0  0  0  0  0  0  0  0
   53.0390   56.7550   20.3170 C   0  0  0  0  0  0  0  0  0  0  0  0
   52.7920   57.6100   21.5770 C   0  0  0  0  0  0  0  0  0  0  0  0
   51.2640   57.8280   21.5360 C   0  0  0  0  0  0  0  0  0  0  0  0
   51.4670   54.9050   19.3040 C   0  0  0  0  0  0  0  0  0  0  0  0
   49.2480   49.6950   18.8160 C   0  0  0  0  0  0  0  0  0  0  0  0
   48.9000   48.5890   18.0740 C   0  0  0  0  0  0  0  0  0  0  0  0
   48.9760   48.6300   16.6840 C   0  0  0  0  0  0  0  0  0  0  0  0
   49.4020   49.7890   16.0410 C   0  0  0  0  0  0  0  0  0  0  0  0
   49.7500   50.8980   16.7770 C   0  0  0  0  0  0  0  0  0  0  0  0
   49.6760   50.8600   18.1730 C   0  0  0  0  0  0  0  0  0  0  0  0
   48.6230   47.5110   15.9370 N   0  0  0  0  0  0  0  0  0  0  0  0
   49.2580   47.1250   15.3130 H   0  0  0  0  0  0  0  0  0  0  0  0
   47.7430   47.1160   16.0390 H   0  0  0  0  0  0  0  0  0  0  0  0
   49.4800   49.8290   14.5640 N   0  0  0  0  0  0  0  0  0  0  0  0
   50.5660   49.8050   14.0100 O   0  0  0  0  0  0  0  0  0  0  0  0
   48.4610   49.8860   13.9010 O   0  0  0  0  0  0  0  0  0  0  0  0
  1  4  2  0  0  0  0
  2  1  1  0  0  0  0
  2  5  1  0  0  0  0
  3  2  1  0  0  0  0
  5 13  2  0  0  0  0
  5  6  1  0  0  0  0
  6  7  2  0  0  0  0
  7  8  1  0  0  0  0
  8 12  1  0  0  0  0
  9 10  1  0  0  0  0
  9  8  2  0  0  0  0
 10 11  1  0  0  0  0
 12 11  1  0  0  0  0
 13  9  1  0  0  0  0
 15 14  2  0  0  0  0
 16 15  1  0  0  0  0
 17 16  2  0  0  0  0
 17 18  1  0  0  0  0
 18 19  2  0  0  0  0
 19 14  1  0  0  0  0
 19  1  1  0  0  0  0
 20 22  1  0  0  0  0
 20 16  1  0  0  0  0
 21 20  1  0  0  0  0
 23 17  1  0  0  0  0
 24 23  2  0  0  0  0
 25 23  2  0  0  0  0
M  END
>  <MODEL>
8

>  <REMARK>
  Name = ZINC07802132
                            x       y       z     vdW  Elec       q    Type
                         _______ _______ _______ _____ _____    ______ ____

>  <TORSDO>
F 4

>  <minimizedAffinity>
-8.0985538278882441

$$$$
ZINC07802132
 OpenBabel10211214233D

 25 27  0  0  0  0  0  0  0  0999 V2000
   47.2710   60.6780   18.9700 C   0  0  0  0  0  0  0  0  0  0  0  0
   46.8720   59.7330   19.8430 N   0  0  0  0  0  0  0  0  0  0  0  0
   46.0590   59.8580   20.3560 H   0  0  0  0  0  0  0  0  0  0  0  0
   48.3290   60.5570   18.3830 O   0  0  0  0  0  0  0  0  0  0  0  0
   47.6310   58.5700   20.0090 C   0  0  0  0  0  0  0  0  0  0  0  0
   48.2960   58.3360   21.2060 C   0  0  0  0  0  0  0  0  0  0  0  0
   49.0420   57.1870   21.3650 C   0  0  0  0  0  0  0  0  0  0  0  0
   49.1330   56.2640   20.3350 C   0  0  0  0  0  0  0  0  0  0  0  0
   48.4730   56.4930   19.1420 C   0  0  0  0  0  0  0  0  0  0  0  0
   48.7290   55.3470   18.1870 C   0  0  0  0  0  0  0  0  0  0  0  0
   49.2500   54.1940   19.0710 C   0  0  0  0  0  0  0  0  0  0  0  0
   49.8770   54.9470   20.2630 C   0  0  0  0  0  0  0  0  0  0  0  0
   47.7190   57.6420   18.9810 C   0  0  0  0  0  0  0  0  0  0  0  0
   45.1970   61.9910   19.3830 C   0  0  0  0  0  0  0  0  0  0  0  0
   44.4100   63.0970   19.1550 C   0  0  0  0  0  0  0  0  0  0  0  0
   44.8350   64.0850   18.2710 C   0  0  0  0  0  0  0  0  0  0  0  0
   46.0570   63.9600   17.6170 C   0  0  0  0  0  0  0  0  0  0  0  0
   46.8490   62.8570   17.8410 C   0  0  0  0  0  0  0  0  0  0  0  0
   46.4250   61.8620   18.7270 C   0  0  0  0  0  0  0  0  0  0  0  0
   44.0370   65.2010   18.0440 N   0  0  0  0  0  0  0  0  0  0  0  0
   43.2590   65.1320   17.4670 H   0  0  0  0  0  0  0  0  0  0  0  0
   44.2560   66.0490   18.4610 H   0  0  0  0  0  0  0  0  0  0  0  0
   46.5050   65.0120   16.6780 N   0  0  0  0  0  0  0  0  0  0  0  0
   46.9060   66.0800   17.1080 O   0  0  0  0  0  0  0  0  0  0  0  0
   46.4750   64.8120   15.4780 O   0  0  0  0  0  0  0  0  0  0  0  0
  1  2  1  0  0  0  0
  2  5  1  0  0  0  0
  2  3  1  0  0  0  0
  4  1  2  0  0  0  0
  5  6  2  0  0  0  0
  6  7  1  0  0  0  0
  8  7  2  0  0  0  0
  9  8  1  0  0  0  0
 10 11  1  0  0  0  0
 10  9  1  0  0  0  0
 11 12  1  0  0  0  0
 12  8  1  0  0  0  0
 13  9  2  0  0  0  0
 13  5  1  0  0  0  0
 15 14  1  0  0  0  0
 16 15  2  0  0  0  0
 17 18  2  0  0  0  0
 17 16  1  0  0  0  0
 18 19  1  0  0  0  0
 19  1  1  0  0  0  0
 19 14  2  0  0  0  0
 20 16  1  0  0  0  0
 20 22  1  0  0  0  0
 21 20  1  0  0  0  0
 23 24  2  0  0  0  0
 23 17  1  0  0  0  0
 25 23  2  0  0  0  0
M  END
>  <MODEL>
9

>  <REMARK>
  Name = ZINC07802132
                            x       y       z     vdW  Elec       q    Type
                         _______ _______ _______ _____ _____    ______ ____

>  <TORSDO>
F 4

>  <minimizedAffinity>
-8.0319008123961542

$$$$
ZINC54392543
 OpenBabel10211214243D

 26 28  0  0  0  0  0  0  0  0999 V2000
   50.6930   52.3440   20.7850 C   0  0  0  0  0  0  0  0  0  0  0  0
   51.0050   53.6110   21.2350 C   0  0  0  0  0  0  0  0  0  0  0  0
   51.8550   54.4220   20.4940 C   0  0  0  0  0  0  0  0  0  0  0  0
   52.3920   53.9560   19.3010 C   0  0  0  0  0  0  0  0  0  0  0  0
   52.0810   52.6890   18.8510 C   0  0  0  0  0  0  0  0  0  0  0  0
   51.2310   51.8800   19.5910 C   0  0  0  0  0  0  0  0  0  0  0  0
   52.1710   55.7080   20.9500 N   0  0  0  0  0  0  0  0  0  0  0  0
   52.5370   56.8490   20.0970 C   0  0  0  0  0  0  0  0  0  0  0  0
   52.7770   57.9960   21.0980 C   0  0  0  0  0  0  0  0  0  0  0  0
   52.5200   57.3800   22.4080 N   0  0  0  0  0  0  0  0  0  0  0  0
   52.5830   57.8320   23.2650 H   0  0  0  0  0  0  0  0  0  0  0  0
   52.1800   56.0960   22.2320 C   0  0  0  0  0  0  0  0  0  0  0  0
   51.9100   55.3500   23.1530 O   0  0  0  0  0  0  0  0  0  0  0  0
   50.9140   50.5920   19.1360 N   0  0  0  0  0  0  0  0  0  0  0  0
   51.5030   49.8480   19.3380 H   0  0  0  0  0  0  0  0  0  0  0  0
   49.7950   50.3880   18.4160 C   0  0  0  0  0  0  0  0  0  0  0  0
   49.4340   49.1360   18.0720 N   0  0  0  0  0  0  0  0  0  0  0  0
   50.0130   48.3880   18.2850 H   0  0  0  0  0  0  0  0  0  0  0  0
   49.1070   51.3330   18.0780 O   0  0  0  0  0  0  0  0  0  0  0  0
   48.2210   48.9140   17.4070 C   0  0  0  0  0  0  0  0  0  0  0  0
   48.2130   48.6640   16.0410 C   0  0  0  0  0  0  0  0  0  0  0  0
   47.0160   48.4460   15.3870 C   0  0  0  0  0  0  0  0  0  0  0  0
   45.8250   48.4760   16.0920 C   0  0  0  0  0  0  0  0  0  0  0  0
   44.6550   48.2630   15.4500 F   0  0  0  0  0  0  0  0  0  0  0  0
   45.8310   48.7250   17.4540 C   0  0  0  0  0  0  0  0  0  0  0  0
   47.0260   48.9390   18.1130 C   0  0  0  0  0  0  0  0  0  0  0  0
  1  2  1  0  0  0  0
  3  7  1  0  0  0  0
  3  2  2  0  0  0  0
  4  3  1  0  0  0  0
  5  4  2  0  0  0  0
  5  6  1  0  0  0  0
  6  1  2  0  0  0  0
  7 12  1  0  0  0  0
  8  7  1  0  0  0  0
  8  9  2  0  0  0  0
  9 10  1  0  0  0  0
 10 11  1  0  0  0  0
 12 10  1  0  0  0  0
 12 13  2  0  0  0  0
 14 15  1  0  0  0  0
 14  6  1  0  0  0  0
 16 14  1  0  0  0  0
 17 18  1  0  0  0  0
 17 16  1  0  0  0  0
 19 16  2  0  0  0  0
 20 17  1  0  0  0  0
 20 26  2  0  0  0  0
 21 20  1  0  0  0  0
 22 21  2  0  0  0  0
 22 23  1  0  0  0  0
 23 25  2  0  0  0  0
 24 23  1  0  0  0  0
 25 26  1  0  0  0  0
M  END
>  <MODEL>
1

>  <REMARK>
  Name = ZINC54392543
                            x       y       z     vdW  Elec       q    Type
                         _______ _______ _______ _____ _____    ______ ____

>  <TORSDO>
F 3

>  <minimizedAffinity>
-9.1676493741509528

$$$$
ZINC54392543
 OpenBabel10211214243D

 26 28  0  0  0  0  0  0  0  0999 V2000
   48.3780   51.8970   16.8800 C   0  0  0  0  0  0  0  0  0  0  0  0
   47.6290   50.7610   16.6520 C   0  0  0  0  0  0  0  0  0  0  0  0
   48.0060   49.5540   17.2270 C   0  0  0  0  0  0  0  0  0  0  0  0
   49.1370   49.4910   18.0290 C   0  0  0  0  0  0  0  0  0  0  0  0
   49.8870   50.6280   18.2570 C   0  0  0  0  0  0  0  0  0  0  0  0
   49.5090   51.8340   17.6830 C   0  0  0  0  0  0  0  0  0  0  0  0
   47.2450   48.4000   16.9960 N   0  0  0  0  0  0  0  0  0  0  0  0
   47.1610   47.6760   15.7190 C   0  0  0  0  0  0  0  0  0  0  0  0
   46.2050   46.5050   16.0200 C   0  0  0  0  0  0  0  0  0  0  0  0
   45.8530   46.6940   17.4350 N   0  0  0  0  0  0  0  0  0  0  0  0
   45.2590   46.1220   17.9470 H   0  0  0  0  0  0  0  0  0  0  0  0
   46.4850   47.7770   17.9060 C   0  0  0  0  0  0  0  0  0  0  0  0
   46.3750   48.1620   19.0540 O   0  0  0  0  0  0  0  0  0  0  0  0
   50.2700   52.9880   17.9120 N   0  0  0  0  0  0  0  0  0  0  0  0
   51.0710   53.1530   17.3900 H   0  0  0  0  0  0  0  0  0  0  0  0
   49.8910   53.8680   18.8590 C   0  0  0  0  0  0  0  0  0  0  0  0
   50.5580   55.0300   19.0060 N   0  0  0  0  0  0  0  0  0  0  0  0
   51.3510   55.2040   18.4760 H   0  0  0  0  0  0  0  0  0  0  0  0
   48.9440   53.6170   19.5800 O   0  0  0  0  0  0  0  0  0  0  0  0
   50.1070   55.9870   19.9240 C   0  0  0  0  0  0  0  0  0  0  0  0
   48.9330   56.6860   19.6770 C   0  0  0  0  0  0  0  0  0  0  0  0
   48.4900   57.6300   20.5830 C   0  0  0  0  0  0  0  0  0  0  0  0
   49.2150   57.8800   21.7350 C   0  0  0  0  0  0  0  0  0  0  0  0
   48.7800   58.8040   22.6200 F   0  0  0  0  0  0  0  0  0  0  0  0
   50.3860   57.1840   21.9830 C   0  0  0  0  0  0  0  0  0  0  0  0
   50.8300   56.2350   21.0830 C   0  0  0  0  0  0  0  0  0  0  0  0
  1  6  1  0  0  0  0
  2  1  2  0  0  0  0
  2  3  1  0  0  0  0
  3  4  2  0  0  0  0
  4  5  1  0  0  0  0
  6 14  1  0  0  0  0
  6  5  2  0  0  0  0
  7  3  1  0  0  0  0
  7 12  1  0  0  0  0
  8  9  2  0  0  0  0
  8  7  1  0  0  0  0
  9 10  1  0  0  0  0
 10 12  1  0  0  0  0
 10 11  1  0  0  0  0
 12 13  2  0  0  0  0
 14 16  1  0  0  0  0
 15 14  1  0  0  0  0
 16 17  1  0  0  0  0
 16 19  2  0  0  0  0
 17 20  1  0  0  0  0
 18 17  1  0  0  0  0
 20 26  1  0  0  0  0
 21 20  2  0  0  0  0
 21 22  1  0  0  0  0
 22 23  2  0  0  0  0
 23 25  1  0  0  0  0
 23 24  1  0  0  0  0
 26 25  2  0  0  0  0
M  END
>  <MODEL>
2

>  <REMARK>
  Name = ZINC54392543
                            x       y       z     vdW  Elec       q    Type
                         _______ _______ _______ _____ _____    ______ ____

>  <TORSDO>
F 3

>  <minimizedAffinity>
-9.0214396696849608

$$$$
ZINC54392543
 OpenBabel10211214243D

 26 28  0  0  0  0  0  0  0  0999 V2000
   50.5490   52.1540   20.3580 C   0  0  0  0  0  0  0  0  0  0  0  0
   50.4360   53.3480   21.0410 C   0  0  0  0  0  0  0  0  0  0  0  0
   50.4230   54.5490   20.3430 C   0  0  0  0  0  0  0  0  0  0  0  0
   50.5260   54.5470   18.9590 C   0  0  0  0  0  0  0  0  0  0  0  0
   50.6390   53.3530   18.2750 C   0  0  0  0  0  0  0  0  0  0  0  0
   50.6510   52.1530   18.9730 C   0  0  0  0  0  0  0  0  0  0  0  0
   50.3080   55.7610   21.0370 N   0  0  0  0  0  0  0  0  0  0  0  0
   49.1520   56.6670   20.9820 C   0  0  0  0  0  0  0  0  0  0  0  0
   49.5470   57.8270   21.9180 C   0  0  0  0  0  0  0  0  0  0  0  0
   50.8840   57.4500   22.4000 N   0  0  0  0  0  0  0  0  0  0  0  0
   51.4270   57.9690   23.0150 H   0  0  0  0  0  0  0  0  0  0  0  0
   51.2310   56.2740   21.8600 C   0  0  0  0  0  0  0  0  0  0  0  0
   52.2910   55.7250   22.0940 O   0  0  0  0  0  0  0  0  0  0  0  0
   50.7660   50.9410   18.2800 N   0  0  0  0  0  0  0  0  0  0  0  0
   51.6260   50.4950   18.2240 H   0  0  0  0  0  0  0  0  0  0  0  0
   49.6850   50.3950   17.6910 C   0  0  0  0  0  0  0  0  0  0  0  0
   49.7710   49.1770   17.1200 N   0  0  0  0  0  0  0  0  0  0  0  0
   50.6270   48.7220   17.0740 H   0  0  0  0  0  0  0  0  0  0  0  0
   48.6300   50.9990   17.6770 O   0  0  0  0  0  0  0  0  0  0  0  0
   48.6260   48.5670   16.5920 C   0  0  0  0  0  0  0  0  0  0  0  0
   48.1640   48.9280   15.3340 C   0  0  0  0  0  0  0  0  0  0  0  0
   47.0340   48.3260   14.8160 C   0  0  0  0  0  0  0  0  0  0  0  0
   46.3620   47.3640   15.5510 C   0  0  0  0  0  0  0  0  0  0  0  0
   45.2550   46.7770   15.0420 F   0  0  0  0  0  0  0  0  0  0  0  0
   46.8200   47.0040   16.8070 C   0  0  0  0  0  0  0  0  0  0  0  0
   47.9530   47.5990   17.3260 C   0  0  0  0  0  0  0  0  0  0  0  0
  1  2  1  0  0  0  0
  3  7  1  0  0  0  0
  3  2  2  0  0  0  0
  4  3  1  0  0  0  0
  5  4  2  0  0  0  0
  5  6  1  0  0  0  0
  6  1  2  0  0  0  0
  7 12  1  0  0  0  0
  8  7  1  0  0  0  0
  8  9  2  0  0  0  0
  9 10  1  0  0  0  0
 10 11  1  0  0  0  0
 12 13  2  0  0  0  0
 12 10  1  0  0  0  0
 14  6  1  0  0  0  0
 15 14  1  0  0  0  0
 16 14  1  0  0  0  0
 17 16  1  0  0  0  0
 18 17  1  0  0  0  0
 19 16  2  0  0  0  0
 20 17  1  0  0  0  0
 20 26  2  0  0  0  0
 21 20  1  0  0  0  0
 22 21  2  0  0  0  0
 22 23  1  0  0  0  0
 23 25  2  0  0  0  0
 24 23  1  0  0  0  0
 25 26  1  0  0  0  0
M  END
>  <MODEL>
3

>  <REMARK>
  Name = ZINC54392543
                            x       y       z     vdW  Elec       q    Type
                         _______ _______ _______ _____ _____    ______ ____

>  <TORSDO>
F 3

>  <minimizedAffinity>
-8.8764132377612626

$$$$
ZINC54392543
 OpenBabel10211214243D

 26 28  0  0  0  0  0  0  0  0999 V2000
   48.5120   47.5290   16.7350 C   0  0  0  0  0  0  0  0  0  0  0  0
   47.3380   46.8990   16.3770 C   0  0  0  0  0  0  0  0  0  0  0  0
   46.4490   47.5240   15.5120 C   0  0  0  0  0  0  0  0  0  0  0  0
   46.7430   48.7840   15.0080 C   0  0  0  0  0  0  0  0  0  0  0  0
   47.9180   49.4150   15.3650 C   0  0  0  0  0  0  0  0  0  0  0  0
   48.8060   48.7890   16.2290 C   0  0  0  0  0  0  0  0  0  0  0  0
   45.2570   46.8840   15.1490 N   0  0  0  0  0  0  0  0  0  0  0  0
   45.0910   45.9780   14.0030 C   0  0  0  0  0  0  0  0  0  0  0  0
   43.6070   45.5660   14.0690 C   0  0  0  0  0  0  0  0  0  0  0  0
   43.0950   46.2850   15.2460 N   0  0  0  0  0  0  0  0  0  0  0  0
   42.1820   46.2460   15.5750 H   0  0  0  0  0  0  0  0  0  0  0  0
   44.0890   46.9950   15.7950 C   0  0  0  0  0  0  0  0  0  0  0  0
   43.9430   47.6820   16.7880 O   0  0  0  0  0  0  0  0  0  0  0  0
   49.9980   49.4290   16.5940 N   0  0  0  0  0  0  0  0  0  0  0  0
   50.7640   49.4020   15.9990 H   0  0  0  0  0  0  0  0  0  0  0  0
   50.0820   50.0780   17.7710 C   0  0  0  0  0  0  0  0  0  0  0  0
   51.1900   50.7840   18.0730 N   0  0  0  0  0  0  0  0  0  0  0  0
   51.9520   50.7710   17.4740 H   0  0  0  0  0  0  0  0  0  0  0  0
   49.1580   50.0310   18.5600 O   0  0  0  0  0  0  0  0  0  0  0  0
   51.2400   51.5390   19.2530 C   0  0  0  0  0  0  0  0  0  0  0  0
   51.8830   51.0310   20.3740 C   0  0  0  0  0  0  0  0  0  0  0  0
   51.9310   51.7760   21.5360 C   0  0  0  0  0  0  0  0  0  0  0  0
   51.3390   53.0270   21.5840 C   0  0  0  0  0  0  0  0  0  0  0  0
   51.3870   53.7530   22.7230 F   0  0  0  0  0  0  0  0  0  0  0  0
   50.6970   53.5340   20.4670 C   0  0  0  0  0  0  0  0  0  0  0  0
   50.6510   52.7950   19.3000 C   0  0  0  0  0  0  0  0  0  0  0  0
  2  1  1  0  0  0  0
  3  2  2  0  0  0  0
  4  5  2  0  0  0  0
  4  3  1  0  0  0  0
  5  6  1  0  0  0  0
  6 14  1  0  0  0  0
  6  1  2  0  0  0  0
  7  3  1  0  0  0  0
  7 12  1  0  0  0  0
  8  9  2  0  0  0  0
  8  7  1  0  0  0  0
  9 10  1  0  0  0  0
 10 11  1  0  0  0  0
 10 12  1  0  0  0  0
 12 13  2  0  0  0  0
 14 16  1  0  0  0  0
 15 14  1  0  0  0  0
 16 17  1  0  0  0  0
 16 19  2  0  0  0  0
 17 20  1  0  0  0  0
 18 17  1  0  0  0  0
 20 26  2  0  0  0  0
 20 21  1  0  0  0  0
 21 22  2  0  0  0  0
 22 23  1  0  0  0  0
 23 24  1  0  0  0  0
 25 23  2  0  0  0  0
 26 25  1  0  0  0  0
M  END
>  <MODEL>
4

>  <REMARK>
  Name = ZINC54392543
                            x       y       z     vdW  Elec       q    Type
                         _______ _______ _______ _____ _____    ______ ____

>  <TORSDO>
F 3

>  <minimizedAffinity>
-8.5726931323059397

$$$$
ZINC54392543
 OpenBabel10211214243D

 26 28  0  0  0  0  0  0  0  0999 V2000
   49.5910   49.3650   19.2150 C   0  0  0  0  0  0  0  0  0  0  0  0
   48.5300   48.7720   18.5620 C   0  0  0  0  0  0  0  0  0  0  0  0
   47.8560   49.4610   17.5620 C   0  0  0  0  0  0  0  0  0  0  0  0
   48.2500   50.7480   17.2210 C   0  0  0  0  0  0  0  0  0  0  0  0
   49.3110   51.3420   17.8740 C   0  0  0  0  0  0  0  0  0  0  0  0
   49.9850   50.6530   18.8730 C   0  0  0  0  0  0  0  0  0  0  0  0
   46.7790   48.8580   16.8990 N   0  0  0  0  0  0  0  0  0  0  0  0
   45.4150   48.7300   17.4330 C   0  0  0  0  0  0  0  0  0  0  0  0
   44.6470   48.0010   16.3120 C   0  0  0  0  0  0  0  0  0  0  0  0
   45.6610   47.7970   15.2670 N   0  0  0  0  0  0  0  0  0  0  0  0
   45.5090   47.3600   14.4130 H   0  0  0  0  0  0  0  0  0  0  0  0
   46.8270   48.3130   15.6770 C   0  0  0  0  0  0  0  0  0  0  0  0
   47.8390   48.2850   15.0020 O   0  0  0  0  0  0  0  0  0  0  0  0
   51.0620   51.2550   19.5370 N   0  0  0  0  0  0  0  0  0  0  0  0
   51.8750   50.7510   19.6990 H   0  0  0  0  0  0  0  0  0  0  0  0
   50.9680   52.5330   19.9530 C   0  0  0  0  0  0  0  0  0  0  0  0
   52.0390   53.1460   20.4940 N   0  0  0  0  0  0  0  0  0  0  0  0
   52.8580   52.6490   20.6440 H   0  0  0  0  0  0  0  0  0  0  0  0
   49.9160   53.1340   19.8400 O   0  0  0  0  0  0  0  0  0  0  0  0
   51.9700   54.5020   20.8380 C   0  0  0  0  0  0  0  0  0  0  0  0
   51.5630   54.8760   22.1120 C   0  0  0  0  0  0  0  0  0  0  0  0
   51.4950   56.2130   22.4500 C   0  0  0  0  0  0  0  0  0  0  0  0
   51.8330   57.1810   21.5190 C   0  0  0  0  0  0  0  0  0  0  0  0
   51.7660   58.4900   21.8520 F   0  0  0  0  0  0  0  0  0  0  0  0
   52.2400   56.8110   20.2480 C   0  0  0  0  0  0  0  0  0  0  0  0
   52.3140   55.4740   19.9080 C   0  0  0  0  0  0  0  0  0  0  0  0
  2  1  2  0  0  0  0
  3  2  1  0  0  0  0
  4  3  2  0  0  0  0
  4  5  1  0  0  0  0
  5  6  2  0  0  0  0
  6  1  1  0  0  0  0
  6 14  1  0  0  0  0
  7  8  1  0  0  0  0
  7  3  1  0  0  0  0
  9  8  2  0  0  0  0
 10 12  1  0  0  0  0
 10  9  1  0  0  0  0
 11 10  1  0  0  0  0
 12  7  1  0  0  0  0
 13 12  2  0  0  0  0
 14 15  1  0  0  0  0
 14 16  1  0  0  0  0
 16 17  1  0  0  0  0
 17 18  1  0  0  0  0
 17 20  1  0  0  0  0
 19 16  2  0  0  0  0
 20 21  2  0  0  0  0
 21 22  1  0  0  0  0
 23 24  1  0  0  0  0
 23 22  2  0  0  0  0
 25 23  1  0  0  0  0
 26 25  2  0  0  0  0
 26 20  1  0  0  0  0
M  END
>  <MODEL>
5

>  <REMARK>
  Name = ZINC54392543
                            x       y       z     vdW  Elec       q    Type
                         _______ _______ _______ _____ _____    ______ ____

>  <TORSDO>
F 3

>  <minimizedAffinity>
-8.5512356632015081

$$$$
ZINC54392543
 OpenBabel10211214243D

 26 28  0  0  0  0  0  0  0  0999 V2000
   48.5450   55.1600   19.5280 C   0  0  0  0  0  0  0  0  0  0  0  0
   49.3800   55.9500   20.2910 C   0  0  0  0  0  0  0  0  0  0  0  0
   50.7560   55.8740   20.1200 C   0  0  0  0  0  0  0  0  0  0  0  0
   51.2910   55.0010   19.1820 C   0  0  0  0  0  0  0  0  0  0  0  0
   50.4570   54.2100   18.4180 C   0  0  0  0  0  0  0  0  0  0  0  0
   49.0810   54.2870   18.5890 C   0  0  0  0  0  0  0  0  0  0  0  0
   51.6040   56.6760   20.8940 N   0  0  0  0  0  0  0  0  0  0  0  0
   51.9970   58.0570   20.5750 C   0  0  0  0  0  0  0  0  0  0  0  0
   52.9210   58.4570   21.7420 C   0  0  0  0  0  0  0  0  0  0  0  0
   52.9500   57.2600   22.5940 N   0  0  0  0  0  0  0  0  0  0  0  0
   53.4470   57.1720   23.4240 H   0  0  0  0  0  0  0  0  0  0  0  0
   52.1790   56.3110   22.0470 C   0  0  0  0  0  0  0  0  0  0  0  0
   52.0200   55.2150   22.5500 O   0  0  0  0  0  0  0  0  0  0  0  0
   48.2320   53.4840   17.8150 N   0  0  0  0  0  0  0  0  0  0  0  0
   47.5130   53.8900   17.3060 H   0  0  0  0  0  0  0  0  0  0  0  0
   48.4130   52.1500   17.7810 C   0  0  0  0  0  0  0  0  0  0  0  0
   47.6680   51.3900   16.9540 N   0  0  0  0  0  0  0  0  0  0  0  0
   46.9570   51.7940   16.4320 H   0  0  0  0  0  0  0  0  0  0  0  0
   49.2500   51.6300   18.4940 O   0  0  0  0  0  0  0  0  0  0  0  0
   47.9200   50.0160   16.8460 C   0  0  0  0  0  0  0  0  0  0  0  0
   47.3630   49.1340   17.7620 C   0  0  0  0  0  0  0  0  0  0  0  0
   47.6130   47.7800   17.6550 C   0  0  0  0  0  0  0  0  0  0  0  0
   48.4190   47.3030   16.6350 C   0  0  0  0  0  0  0  0  0  0  0  0
   48.6630   45.9770   16.5330 F   0  0  0  0  0  0  0  0  0  0  0  0
   48.9770   48.1810   15.7210 C   0  0  0  0  0  0  0  0  0  0  0  0
   48.7240   49.5350   15.8220 C   0  0  0  0  0  0  0  0  0  0  0  0
  1  2  2  0  0  0  0
  3  2  1  0  0  0  0
  3  7  1  0  0  0  0
  4  3  2  0  0  0  0
  5  6  2  0  0  0  0
  5  4  1  0  0  0  0
  6  1  1  0  0  0  0
  7 12  1  0  0  0  0
  8  7  1  0  0  0  0
  8  9  2  0  0  0  0
  9 10  1  0  0  0  0
 10 11  1  0  0  0  0
 12 13  2  0  0  0  0
 12 10  1  0  0  0  0
 14  6  1  0  0  0  0
 15 14  1  0  0  0  0
 16 14  1  0  0  0  0
 16 19  2  0  0  0  0
 17 16  1  0  0  0  0
 18 17  1  0  0  0  0
 20 17  1  0  0  0  0
 20 21  2  0  0  0  0
 22 21  1  0  0  0  0
 23 22  2  0  0  0  0
 24 23  1  0  0  0  0
 25 26  2  0  0  0  0
 25 23  1  0  0  0  0
 26 20  1  0  0  0  0
M  END
>  <MODEL>
6

>  <REMARK>
  Name = ZINC54392543
                            x       y       z     vdW  Elec       q    Type
                         _______ _______ _______ _____ _____    ______ ____

>  <TORSDO>
F 3

>  <minimizedAffinity>
-8.4959867444134947

$$$$
ZINC54392543
 OpenBabel10211214243D

 26 28  0  0  0  0  0  0  0  0999 V2000
   48.1700   55.2120   19.1180 C   0  0  0  0  0  0  0  0  0  0  0  0
   48.8290   54.2410   19.8430 C   0  0  0  0  0  0  0  0  0  0  0  0
   50.2150   54.2580   19.9290 C   0  0  0  0  0  0  0  0  0  0  0  0
   50.9370   55.2520   19.2840 C   0  0  0  0  0  0  0  0  0  0  0  0
   50.2790   56.2250   18.5580 C   0  0  0  0  0  0  0  0  0  0  0  0
   48.8940   56.2080   18.4730 C   0  0  0  0  0  0  0  0  0  0  0  0
   50.8830   53.2720   20.6660 N   0  0  0  0  0  0  0  0  0  0  0  0
   51.0480   51.8680   20.2580 C   0  0  0  0  0  0  0  0  0  0  0  0
   51.8480   51.2380   21.4150 C   0  0  0  0  0  0  0  0  0  0  0  0
   52.0480   52.3540   22.3520 N   0  0  0  0  0  0  0  0  0  0  0  0
   52.5210   52.2990   23.1980 H   0  0  0  0  0  0  0  0  0  0  0  0
   51.4800   53.4580   21.8500 C   0  0  0  0  0  0  0  0  0  0  0  0
   51.5010   54.5320   22.4210 O   0  0  0  0  0  0  0  0  0  0  0  0
   48.2240   57.1930   17.7350 N   0  0  0  0  0  0  0  0  0  0  0  0
   48.0810   57.0730   16.7830 H   0  0  0  0  0  0  0  0  0  0  0  0
   47.7810   58.3080   18.3470 C   0  0  0  0  0  0  0  0  0  0  0  0
   47.0420   59.2050   17.6630 N   0  0  0  0  0  0  0  0  0  0  0  0
   46.8860   59.0810   16.7140 H   0  0  0  0  0  0  0  0  0  0  0  0
   48.0440   58.5060   19.5180 O   0  0  0  0  0  0  0  0  0  0  0  0
   46.5000   60.3160   18.3220 C   0  0  0  0  0  0  0  0  0  0  0  0
   47.3340   61.3280   18.7780 C   0  0  0  0  0  0  0  0  0  0  0  0
   46.7970   62.4220   19.4280 C   0  0  0  0  0  0  0  0  0  0  0  0
   45.4300   62.5090   19.6260 C   0  0  0  0  0  0  0  0  0  0  0  0
   44.9070   63.5810   20.2630 F   0  0  0  0  0  0  0  0  0  0  0  0
   44.5970   61.5000   19.1730 C   0  0  0  0  0  0  0  0  0  0  0  0
   45.1290   60.4070   18.5170 C   0  0  0  0  0  0  0  0  0  0  0  0
  1  2  2  0  0  0  0
  2  3  1  0  0  0  0
  3  7  1  0  0  0  0
  4  3  2  0  0  0  0
  5  4  1  0  0  0  0
  6  5  2  0  0  0  0
  6  1  1  0  0  0  0
  7 12  1  0  0  0  0
  8  7  1  0  0  0  0
  8  9  2  0  0  0  0
  9 10  1  0  0  0  0
 10 11  1  0  0  0  0
 12 10  1  0  0  0  0
 12 13  2  0  0  0  0
 14 16  1  0  0  0  0
 14  6  1  0  0  0  0
 15 14  1  0  0  0  0
 16 19  2  0  0  0  0
 17 20  1  0  0  0  0
 17 16  1  0  0  0  0
 18 17  1  0  0  0  0
 20 26  2  0  0  0  0
 20 21  1  0  0  0  0
 21 22  2  0  0  0  0
 22 23  1  0  0  0  0
 23 24  1  0  0  0  0
 25 23  2  0  0  0  0
 26 25  1  0  0  0  0
M  END
>  <MODEL>
7

>  <REMARK>
  Name = ZINC54392543
                            x       y       z     vdW  Elec       q    Type
                         _______ _______ _______ _____ _____    ______ ____

>  <TORSDO>
F 3

>  <minimizedAffinity>
-7.8608352348982455

$$$$
ZINC54392543
 OpenBabel10211214243D

 26 28  0  0  0  0  0  0  0  0999 V2000
   49.9170   51.4420   17.2640 C   0  0  0  0  0  0  0  0  0  0  0  0
   50.2710   52.3200   18.2680 C   0  0  0  0  0  0  0  0  0  0  0  0
   50.4870   51.8520   19.5570 C   0  0  0  0  0  0  0  0  0  0  0  0
   50.3460   50.4990   19.8360 C   0  0  0  0  0  0  0  0  0  0  0  0
   49.9920   49.6200   18.8320 C   0  0  0  0  0  0  0  0  0  0  0  0
   49.7760   50.0880   17.5440 C   0  0  0  0  0  0  0  0  0  0  0  0
   50.8470   52.7440   20.5760 N   0  0  0  0  0  0  0  0  0  0  0  0
   50.3750   54.1310   20.6980 C   0  0  0  0  0  0  0  0  0  0  0  0
   51.0680   54.6450   21.9760 C   0  0  0  0  0  0  0  0  0  0  0  0
   51.8550   53.4920   22.4370 N   0  0  0  0  0  0  0  0  0  0  0  0
   52.4180   53.4750   23.2280 H   0  0  0  0  0  0  0  0  0  0  0  0
   51.6680   52.4660   21.5960 C   0  0  0  0  0  0  0  0  0  0  0  0
   52.2000   51.3820   21.7440 O   0  0  0  0  0  0  0  0  0  0  0  0
   49.4160   49.1970   16.5240 N   0  0  0  0  0  0  0  0  0  0  0  0
   50.1010   48.7930   15.9690 H   0  0  0  0  0  0  0  0  0  0  0  0
   48.1180   48.9030   16.3130 C   0  0  0  0  0  0  0  0  0  0  0  0
   47.7780   47.9650   15.4070 N   0  0  0  0  0  0  0  0  0  0  0  0
   48.4620   47.5490   14.8590 H   0  0  0  0  0  0  0  0  0  0  0  0
   47.2530   49.4820   16.9410 O   0  0  0  0  0  0  0  0  0  0  0  0
   46.4370   47.5900   15.2550 C   0  0  0  0  0  0  0  0  0  0  0  0
   45.8710   46.6690   16.1260 C   0  0  0  0  0  0  0  0  0  0  0  0
   44.5490   46.2990   15.9750 C   0  0  0  0  0  0  0  0  0  0  0  0
   43.7890   46.8470   14.9550 C   0  0  0  0  0  0  0  0  0  0  0  0
   42.4950   46.4830   14.8090 F   0  0  0  0  0  0  0  0  0  0  0  0
   44.3510   47.7650   14.0850 C   0  0  0  0  0  0  0  0  0  0  0  0
   45.6720   48.1420   14.2370 C   0  0  0  0  0  0  0  0  0  0  0  0
  1  6  2  0  0  0  0
  1  2  1  0  0  0  0
  2  3  2  0  0  0  0
  3  4  1  0  0  0  0
  3  7  1  0  0  0  0
  5  4  2  0  0  0  0
  6  5  1  0  0  0  0
  7  8  1  0  0  0  0
  7 12  1  0  0  0  0
  8  9  2  0  0  0  0
  9 10  1  0  0  0  0
 10 11  1  0  0  0  0
 12 13  2  0  0  0  0
 12 10  1  0  0  0  0
 14  6  1  0  0  0  0
 15 14  1  0  0  0  0
 16 14  1  0  0  0  0
 16 19  2  0  0  0  0
 17 16  1  0  0  0  0
 18 17  1  0  0  0  0
 20 17  1  0  0  0  0
 20 21  2  0  0  0  0
 22 21  1  0  0  0  0
 23 22  2  0  0  0  0
 24 23  1  0  0  0  0
 25 26  2  0  0  0  0
 25 23  1  0  0  0  0
 26 20  1  0  0  0  0
M  END
>  <MODEL>
8

>  <REMARK>
  Name = ZINC54392543
                            x       y       z     vdW  Elec       q    Type
                         _______ _______ _______ _____ _____    ______ ____

>  <TORSDO>
F 3

>  <minimizedAffinity>
-7.8571318085927828

$$$$
ZINC54392543
 OpenBabel10211214243D

 26 28  0  0  0  0  0  0  0  0999 V2000
   48.5780   53.5830   17.0070 C   0  0  0  0  0  0  0  0  0  0  0  0
   48.5080   54.6450   17.8850 C   0  0  0  0  0  0  0  0  0  0  0  0
   49.1800   54.5900   19.0990 C   0  0  0  0  0  0  0  0  0  0  0  0
   49.9210   53.4640   19.4300 C   0  0  0  0  0  0  0  0  0  0  0  0
   49.9920   52.4010   18.5530 C   0  0  0  0  0  0  0  0  0  0  0  0
   49.3210   52.4560   17.3400 C   0  0  0  0  0  0  0  0  0  0  0  0
   49.1080   55.6700   19.9890 N   0  0  0  0  0  0  0  0  0  0  0  0
   47.9970   56.6290   20.0780 C   0  0  0  0  0  0  0  0  0  0  0  0
   48.4270   57.5900   21.2040 C   0  0  0  0  0  0  0  0  0  0  0  0
   49.7350   57.0690   21.6290 N   0  0  0  0  0  0  0  0  0  0  0  0
   50.2890   57.4480   22.3310 H   0  0  0  0  0  0  0  0  0  0  0  0
   50.0370   55.9880   20.9000 C   0  0  0  0  0  0  0  0  0  0  0  0
   51.0650   55.3550   21.0480 O   0  0  0  0  0  0  0  0  0  0  0  0
   49.3910   51.3770   16.4490 N   0  0  0  0  0  0  0  0  0  0  0  0
   50.1580   51.2810   15.8620 H   0  0  0  0  0  0  0  0  0  0  0  0
   48.3930   50.4730   16.4040 C   0  0  0  0  0  0  0  0  0  0  0  0
   48.5090   49.3780   15.6280 N   0  0  0  0  0  0  0  0  0  0  0  0
   49.2820   49.2720   15.0510 H   0  0  0  0  0  0  0  0  0  0  0  0
   47.3880   50.6440   17.0670 O   0  0  0  0  0  0  0  0  0  0  0  0
   47.5160   48.3910   15.6550 C   0  0  0  0  0  0  0  0  0  0  0  0
   47.5660   47.3810   16.6060 C   0  0  0  0  0  0  0  0  0  0  0  0
   46.5860   46.4080   16.6300 C   0  0  0  0  0  0  0  0  0  0  0  0
   45.5550   46.4390   15.7070 C   0  0  0  0  0  0  0  0  0  0  0  0
   44.5970   45.4850   15.7320 F   0  0  0  0  0  0  0  0  0  0  0  0
   45.5040   47.4450   14.7570 C   0  0  0  0  0  0  0  0  0  0  0  0
   46.4790   48.4240   14.7330 C   0  0  0  0  0  0  0  0  0  0  0  0
  1  6  2  0  0  0  0
  1  2  1  0  0  0  0
  2  3  2  0  0  0  0
  3  4  1  0  0  0  0
  3  7  1  0  0  0  0
  5  4  2  0  0  0  0
  6  5  1  0  0  0  0
  7  8  1  0  0  0  0
  7 12  1  0  0  0  0
  8  9  2  0  0  0  0
  9 10  1  0  0  0  0
 10 11  1  0  0  0  0
 12 13  2  0  0  0  0
 12 10  1  0  0  0  0
 14  6  1  0  0  0  0
 15 14  1  0  0  0  0
 16 14  1  0  0  0  0
 16 19  2  0  0  0  0
 17 20  1  0  0  0  0
 17 16  1  0  0  0  0
 18 17  1  0  0  0  0
 20 21  2  0  0  0  0
 21 22  1  0  0  0  0
 23 24  1  0  0  0  0
 23 22  2  0  0  0  0
 25 23  1  0  0  0  0
 26 25  2  0  0  0  0
 26 20  1  0  0  0  0
M  END
>  <MODEL>
9

>  <REMARK>
  Name = ZINC54392543
                            x       y       z     vdW  Elec       q    Type
                         _______ _______ _______ _____ _____    ______ ____

>  <TORSDO>
F 3

>  <minimizedAffinity>
-7.7932630855962479

$$$$
ZINC26121122
 OpenBabel10211214253D

 27 28  0  0  1  0  0  0  0  0999 V2000
   48.3370   54.9820   19.5220 C   0  0  0  0  0  0  0  0  0  0  0  0
   49.6180   54.2080   19.8430 C   0  0  2  0  0  0  0  0  0  0  0  0
   50.6790   55.1680   20.3160 C   0  0  0  0  0  0  0  0  0  0  0  0
   50.9370   55.3020   21.6670 C   0  0  0  0  0  0  0  0  0  0  0  0
   51.9120   56.1820   22.1010 C   0  0  0  0  0  0  0  0  0  0  0  0
   52.6280   56.9270   21.1830 C   0  0  0  0  0  0  0  0  0  0  0  0
   52.3710   56.7920   19.8310 C   0  0  0  0  0  0  0  0  0  0  0  0
   51.4000   55.9090   19.3980 C   0  0  0  0  0  0  0  0  0  0  0  0
   53.8680   58.0500   21.7360 S   0  0  0  0  0  0  0  0  0  0  0  0
   54.5180   58.5420   20.5720 O   0  0  0  0  0  0  0  0  0  0  0  0
   54.5720   57.3940   22.7820 O   0  0  0  0  0  0  0  0  0  0  0  0
   53.0890   59.3390   22.4240 N   0  0  0  0  0  0  0  0  0  0  0  0
   53.2240   59.5420   23.3630 H   0  0  0  0  0  0  0  0  0  0  0  0
   52.4990   59.8920   21.8880 H   0  0  0  0  0  0  0  0  0  0  0  0
   50.0870   53.5150   18.6360 N   0  0  0  0  0  0  0  0  0  0  0  0
   50.7600   54.0940   18.1570 H   0  0  0  0  0  0  0  0  0  0  0  0
   48.9470   53.2510   17.7480 C   0  0  0  0  0  0  0  0  0  0  0  0
   50.7180   52.2430   19.0160 C   0  0  0  0  0  0  0  0  0  0  0  0
   50.1000   51.1200   18.2240 C   0  0  0  0  0  0  0  0  0  0  0  0
   49.2550   50.2370   18.6810 N   0  0  0  0  0  0  0  0  0  0  0  0
   48.9110   49.3850   17.7080 C   0  0  0  0  0  0  0  0  0  0  0  0
   49.5360   49.7180   16.6150 N   0  0  0  0  0  0  0  0  0  0  0  0
   50.3190   50.8600   16.9290 O   0  0  0  0  0  0  0  0  0  0  0  0
   47.9550   48.2280   17.8540 C   0  0  0  0  0  0  0  0  0  0  0  0
   46.6240   48.7340   18.4150 C   0  0  0  0  0  0  0  0  0  0  0  0
   45.7480   47.5420   18.8030 C   0  0  0  0  0  0  0  0  0  0  0  0
   45.9080   49.5690   17.3510 C   0  0  0  0  0  0  0  0  0  0  0  0
  1  2  1  0  0  0  0
  2 15  1  6  0  0  0
  2  3  1  0  0  0  0
  3  4  2  0  0  0  0
  4  5  1  0  0  0  0
  6  9  1  0  0  0  0
  6  5  2  0  0  0  0
  7  6  1  0  0  0  0
  8  7  2  0  0  0  0
  8  3  1  0  0  0  0
  9 12  1  0  0  0  0
  9 11  2  0  0  0  0
 10  9  2  0  0  0  0
 12 13  1  0  0  0  0
 14 12  1  0  0  0  0
 15 18  1  0  0  0  0
 16 15  1  0  0  0  0
 17 15  1  0  0  0  0
 19 20  2  0  0  0  0
 19 18  1  0  0  0  0
 21 24  1  0  0  0  0
 21 20  1  0  0  0  0
 22 23  1  0  0  0  0
 22 21  2  0  0  0  0
 23 19  1  0  0  0  0
 24 25  1  0  0  0  0
 25 26  1  0  0  0  0
 27 25  1  0  0  0  0
M  END
>  <MODEL>
1

>  <REMARK>
  Name = ZINC26121122
                            x       y       z     vdW  Elec       q    Type
                         _______ _______ _______ _____ _____    ______ ____

>  <TORSDO>
F 8

>  <minimizedAffinity>
-8.4686415850439367

$$$$
ZINC26121122
 OpenBabel10211214253D

 27 28  0  0  1  0  0  0  0  0999 V2000
   52.0530   56.2610   22.3920 C   0  0  0  0  0  0  0  0  0  0  0  0
   50.8050   55.6520   21.7480 C   0  0  2  0  0  0  0  0  0  0  0  0
   51.1520   54.3140   21.1480 C   0  0  0  0  0  0  0  0  0  0  0  0
   51.1500   54.1500   19.7760 C   0  0  0  0  0  0  0  0  0  0  0  0
   51.4680   52.9230   19.2250 C   0  0  0  0  0  0  0  0  0  0  0  0
   51.7900   51.8590   20.0470 C   0  0  0  0  0  0  0  0  0  0  0  0
   51.7940   52.0230   21.4200 C   0  0  0  0  0  0  0  0  0  0  0  0
   51.4800   53.2510   21.9700 C   0  0  0  0  0  0  0  0  0  0  0  0
   52.1950   50.2950   19.3450 S   0  0  0  0  0  0  0  0  0  0  0  0
   52.7480   50.5560   18.0620 O   0  0  0  0  0  0  0  0  0  0  0  0
   51.0590   49.4610   19.5300 O   0  0  0  0  0  0  0  0  0  0  0  0
   53.4120   49.6470   20.2620 N   0  0  0  0  0  0  0  0  0  0  0  0
   53.5390   49.9410   21.1780 H   0  0  0  0  0  0  0  0  0  0  0  0
   53.9990   48.9730   19.8840 H   0  0  0  0  0  0  0  0  0  0  0  0
   50.3100   56.5480   20.6940 N   0  0  0  0  0  0  0  0  0  0  0  0
   50.3380   56.0690   19.8060 H   0  0  0  0  0  0  0  0  0  0  0  0
   51.1580   57.7460   20.6310 C   0  0  0  0  0  0  0  0  0  0  0  0
   48.9270   56.9420   20.9960 C   0  0  0  0  0  0  0  0  0  0  0  0
   48.3400   57.6630   19.8100 C   0  0  0  0  0  0  0  0  0  0  0  0
   47.9020   58.8910   19.8030 N   0  0  0  0  0  0  0  0  0  0  0  0
   47.4490   59.2090   18.5850 C   0  0  0  0  0  0  0  0  0  0  0  0
   47.5930   58.1810   17.7990 N   0  0  0  0  0  0  0  0  0  0  0  0
   48.1830   57.1540   18.5820 O   0  0  0  0  0  0  0  0  0  0  0  0
   46.8650   60.5410   18.1870 C   0  0  0  0  0  0  0  0  0  0  0  0
   46.0640   61.1170   19.3580 C   0  0  0  0  0  0  0  0  0  0  0  0
   44.5830   61.1760   18.9820 C   0  0  0  0  0  0  0  0  0  0  0  0
   46.5680   62.5260   19.6750 C   0  0  0  0  0  0  0  0  0  0  0  0
  2 15  1  6  0  0  0
  2  1  1  0  0  0  0
  3  2  1  0  0  0  0
  3  8  2  0  0  0  0
  4  3  1  0  0  0  0
  5  4  2  0  0  0  0
  5  6  1  0  0  0  0
  6  7  2  0  0  0  0
  7  8  1  0  0  0  0
  9 11  2  0  0  0  0
  9  6  1  0  0  0  0
  9 12  1  0  0  0  0
 10  9  2  0  0  0  0
 12 13  1  0  0  0  0
 14 12  1  0  0  0  0
 15 18  1  0  0  0  0
 16 15  1  0  0  0  0
 17 15  1  0  0  0  0
 19 18  1  0  0  0  0
 20 19  2  0  0  0  0
 21 20  1  0  0  0  0
 22 23  1  0  0  0  0
 22 21  2  0  0  0  0
 23 19  1  0  0  0  0
 24 21  1  0  0  0  0
 24 25  1  0  0  0  0
 25 27  1  0  0  0  0
 26 25  1  0  0  0  0
M  END
>  <MODEL>
2

>  <REMARK>
  Name = ZINC26121122
                            x       y       z     vdW  Elec       q    Type
                         _______ _______ _______ _____ _____    ______ ____

>  <TORSDO>
F 8

>  <minimizedAffinity>
-8.3335915381871377

$$$$
ZINC26121122
 OpenBabel10211214253D

 27 28  0  0  1  0  0  0  0  0999 V2000
   52.6460   50.0340   19.5260 C   0  0  0  0  0  0  0  0  0  0  0  0
   51.3820   50.5940   20.1820 C   0  0  2  0  0  0  0  0  0  0  0  0
   50.1790   50.2180   19.3570 C   0  0  0  0  0  0  0  0  0  0  0  0
   49.6710   51.1070   18.4290 C   0  0  0  0  0  0  0  0  0  0  0  0
   48.5680   50.7620   17.6710 C   0  0  0  0  0  0  0  0  0  0  0  0
   47.9720   49.5260   17.8420 C   0  0  0  0  0  0  0  0  0  0  0  0
   48.4800   48.6360   18.7700 C   0  0  0  0  0  0  0  0  0  0  0  0
   49.5860   48.9800   19.5240 C   0  0  0  0  0  0  0  0  0  0  0  0
   46.5650   49.0870   16.8780 S   0  0  0  0  0  0  0  0  0  0  0  0
   46.9470   49.2240   15.5150 O   0  0  0  0  0  0  0  0  0  0  0  0
   45.4580   49.7850   17.4330 O   0  0  0  0  0  0  0  0  0  0  0  0
   46.2830   47.4740   17.1300 N   0  0  0  0  0  0  0  0  0  0  0  0
   45.4050   47.1740   17.4120 H   0  0  0  0  0  0  0  0  0  0  0  0
   46.9960   46.8300   16.9950 H   0  0  0  0  0  0  0  0  0  0  0  0
   51.4800   52.0580   20.2660 N   0  0  0  0  0  0  0  0  0  0  0  0
   50.7000   52.4750   19.7800 H   0  0  0  0  0  0  0  0  0  0  0  0
   52.7360   52.5010   19.6460 C   0  0  0  0  0  0  0  0  0  0  0  0
   51.4570   52.4710   21.6760 C   0  0  0  0  0  0  0  0  0  0  0  0
   51.3400   53.9710   21.7580 C   0  0  0  0  0  0  0  0  0  0  0  0
   50.5820   54.7210   21.0070 N   0  0  0  0  0  0  0  0  0  0  0  0
   50.7230   56.0060   21.3510 C   0  0  0  0  0  0  0  0  0  0  0  0
   51.5780   56.0890   22.3300 N   0  0  0  0  0  0  0  0  0  0  0  0
   51.9920   54.7620   22.6190 O   0  0  0  0  0  0  0  0  0  0  0  0
   50.0100   57.1680   20.7090 C   0  0  0  0  0  0  0  0  0  0  0  0
   48.5800   56.7550   20.3520 C   0  0  0  0  0  0  0  0  0  0  0  0
   48.4700   56.5530   18.8400 C   0  0  0  0  0  0  0  0  0  0  0  0
   47.6080   57.8510   20.7930 C   0  0  0  0  0  0  0  0  0  0  0  0
  1  2  1  0  0  0  0
  2  3  1  6  0  0  0
  2 15  1  0  0  0  0
  3  8  1  0  0  0  0
  4  3  2  0  0  0  0
  5  6  2  0  0  0  0
  5  4  1  0  0  0  0
  6  7  1  0  0  0  0
  7  8  2  0  0  0  0
  9 12  1  0  0  0  0
  9 11  2  0  0  0  0
  9  6  1  0  0  0  0
 10  9  2  0  0  0  0
 12 13  1  0  0  0  0
 14 12  1  0  0  0  0
 15 18  1  0  0  0  0
 16 15  1  0  0  0  0
 17 15  1  0  0  0  0
 18 19  1  0  0  0  0
 19 23  1  0  0  0  0
 20 21  1  0  0  0  0
 20 19  2  0  0  0  0
 21 22  2  0  0  0  0
 22 23  1  0  0  0  0
 24 21  1  0  0  0  0
 25 24  1  0  0  0  0
 25 27  1  0  0  0  0
 26 25  1  0  0  0  0
M  END
>  <MODEL>
3

>  <REMARK>
  Name = ZINC26121122
                            x       y       z     vdW  Elec       q    Type
                         _______ _______ _______ _____ _____    ______ ____

>  <TORSDO>
F 8

>  <minimizedAffinity>
-8.2807983698044296

$$$$
ZINC26121122
 OpenBabel10211214253D

 27 28  0  0  1  0  0  0  0  0999 V2000
   51.9300   55.9850   22.4720 C   0  0  0  0  0  0  0  0  0  0  0  0
   50.8300   55.4870   21.5320 C   0  0  2  0  0  0  0  0  0  0  0  0
   51.2060   54.1300   20.9930 C   0  0  0  0  0  0  0  0  0  0  0  0
   50.7480   52.9870   21.6180 C   0  0  0  0  0  0  0  0  0  0  0  0
   51.0920   51.7430   21.1240 C   0  0  0  0  0  0  0  0  0  0  0  0
   51.8960   51.6430   20.0030 C   0  0  0  0  0  0  0  0  0  0  0  0
   52.3540   52.7870   19.3770 C   0  0  0  0  0  0  0  0  0  0  0  0
   52.0060   54.0310   19.8690 C   0  0  0  0  0  0  0  0  0  0  0  0
   52.3360   50.0580   19.3740 S   0  0  0  0  0  0  0  0  0  0  0  0
   52.8880   50.2720   18.0810 O   0  0  0  0  0  0  0  0  0  0  0  0
   51.2180   49.2090   19.5930 O   0  0  0  0  0  0  0  0  0  0  0  0
   53.5650   49.4790   20.3220 N   0  0  0  0  0  0  0  0  0  0  0  0
   53.5350   48.5670   20.6500 H   0  0  0  0  0  0  0  0  0  0  0  0
   54.3140   50.0520   20.5480 H   0  0  0  0  0  0  0  0  0  0  0  0
   50.6730   56.4310   20.4170 N   0  0  0  0  0  0  0  0  0  0  0  0
   51.0540   56.0220   19.5760 H   0  0  0  0  0  0  0  0  0  0  0  0
   51.3900   57.6760   20.7240 C   0  0  0  0  0  0  0  0  0  0  0  0
   49.2470   56.7220   20.2180 C   0  0  0  0  0  0  0  0  0  0  0  0
   48.8130   56.2090   18.8700 C   0  0  0  0  0  0  0  0  0  0  0  0
   48.7400   54.9560   18.5160 N   0  0  0  0  0  0  0  0  0  0  0  0
   48.3180   54.8600   17.2500 C   0  0  0  0  0  0  0  0  0  0  0  0
   48.1170   56.0580   16.7810 N   0  0  0  0  0  0  0  0  0  0  0  0
   48.4300   56.9610   17.8310 O   0  0  0  0  0  0  0  0  0  0  0  0
   48.1110   53.5740   16.4900 C   0  0  0  0  0  0  0  0  0  0  0  0
   48.1810   52.3920   17.4600 C   0  0  0  0  0  0  0  0  0  0  0  0
   49.5150   51.6650   17.2810 C   0  0  0  0  0  0  0  0  0  0  0  0
   47.0300   51.4270   17.1700 C   0  0  0  0  0  0  0  0  0  0  0  0
  2 15  1  6  0  0  0
  2  1  1  0  0  0  0
  3  2  1  0  0  0  0
  3  4  2  0  0  0  0
  5  4  1  0  0  0  0
  6  5  2  0  0  0  0
  7  8  2  0  0  0  0
  7  6  1  0  0  0  0
  8  3  1  0  0  0  0
  9 11  2  0  0  0  0
  9  6  1  0  0  0  0
  9 12  1  0  0  0  0
 10  9  2  0  0  0  0
 12 14  1  0  0  0  0
 12 13  1  0  0  0  0
 15 17  1  0  0  0  0
 16 15  1  0  0  0  0
 18 15  1  0  0  0  0
 19 18  1  0  0  0  0
 20 19  2  0  0  0  0
 21 20  1  0  0  0  0
 22 21  2  0  0  0  0
 22 23  1  0  0  0  0
 23 19  1  0  0  0  0
 24 21  1  0  0  0  0
 24 25  1  0  0  0  0
 26 25  1  0  0  0  0
 27 25  1  0  0  0  0
M  END
>  <MODEL>
4

>  <REMARK>
  Name = ZINC26121122
                            x       y       z     vdW  Elec       q    Type
                         _______ _______ _______ _____ _____    ______ ____

>  <TORSDO>
F 8

>  <minimizedAffinity>
-8.2256451806792459

$$$$
ZINC26121122
 OpenBabel10211214253D

 27 28  0  0  1  0  0  0  0  0999 V2000
   51.2880   49.9450   19.6870 C   0  0  0  0  0  0  0  0  0  0  0  0
   50.3310   50.9940   19.1170 C   0  0  2  0  0  0  0  0  0  0  0  0
   49.1240   50.3070   18.5300 C   0  0  0  0  0  0  0  0  0  0  0  0
   48.7990   49.0240   18.9270 C   0  0  0  0  0  0  0  0  0  0  0  0
   47.6920   48.3940   18.3900 C   0  0  0  0  0  0  0  0  0  0  0  0
   46.9100   49.0480   17.4560 C   0  0  0  0  0  0  0  0  0  0  0  0
   47.2350   50.3320   17.0600 C   0  0  0  0  0  0  0  0  0  0  0  0
   48.3390   50.9630   17.6000 C   0  0  0  0  0  0  0  0  0  0  0  0
   45.5000   48.2440   16.7700 S   0  0  0  0  0  0  0  0  0  0  0  0
   45.5930   48.3950   15.3590 O   0  0  0  0  0  0  0  0  0  0  0  0
   44.3750   48.6950   17.5120 O   0  0  0  0  0  0  0  0  0  0  0  0
   45.6580   46.6260   17.0830 N   0  0  0  0  0  0  0  0  0  0  0  0
   45.2570   45.9750   16.4870 H   0  0  0  0  0  0  0  0  0  0  0  0
   46.1530   46.3290   17.8640 H   0  0  0  0  0  0  0  0  0  0  0  0
   51.0140   51.7630   18.0680 N   0  0  0  0  0  0  0  0  0  0  0  0
   50.3910   51.8870   17.2830 H   0  0  0  0  0  0  0  0  0  0  0  0
   52.2140   51.0370   17.6300 C   0  0  0  0  0  0  0  0  0  0  0  0
   51.4030   53.0770   18.5980 C   0  0  0  0  0  0  0  0  0  0  0  0
   50.1950   53.9770   18.6460 C   0  0  0  0  0  0  0  0  0  0  0  0
   49.8100   54.6860   19.6700 N   0  0  0  0  0  0  0  0  0  0  0  0
   48.7000   55.3670   19.3650 C   0  0  0  0  0  0  0  0  0  0  0  0
   48.3630   55.0970   18.1370 N   0  0  0  0  0  0  0  0  0  0  0  0
   49.3360   54.1890   17.6420 O   0  0  0  0  0  0  0  0  0  0  0  0
   47.9590   56.2960   20.2940 C   0  0  0  0  0  0  0  0  0  0  0  0
   48.6670   57.6520   20.3310 C   0  0  0  0  0  0  0  0  0  0  0  0
   49.2150   57.9030   21.7360 C   0  0  0  0  0  0  0  0  0  0  0  0
   47.6730   58.7560   19.9640 C   0  0  0  0  0  0  0  0  0  0  0  0
  2 15  1  6  0  0  0
  2  1  1  0  0  0  0
  3  4  1  0  0  0  0
  3  2  1  0  0  0  0
  5  4  2  0  0  0  0
  6  5  1  0  0  0  0
  7  6  2  0  0  0  0
  7  8  1  0  0  0  0
  8  3  2  0  0  0  0
  9 12  1  0  0  0  0
  9  6  1  0  0  0  0
  9 11  2  0  0  0  0
 10  9  2  0  0  0  0
 12 14  1  0  0  0  0
 13 12  1  0  0  0  0
 15 18  1  0  0  0  0
 16 15  1  0  0  0  0
 17 15  1  0  0  0  0
 18 19  1  0  0  0  0
 19 20  2  0  0  0  0
 21 20  1  0  0  0  0
 21 24  1  0  0  0  0
 22 21  2  0  0  0  0
 23 22  1  0  0  0  0
 23 19  1  0  0  0  0
 24 25  1  0  0  0  0
 25 26  1  0  0  0  0
 27 25  1  0  0  0  0
M  END
>  <MODEL>
5

>  <REMARK>
  Name = ZINC26121122
                            x       y       z     vdW  Elec       q    Type
                         _______ _______ _______ _____ _____    ______ ____

>  <TORSDO>
F 8

>  <minimizedAffinity>
-8.0786515869849058

$$$$
ZINC26121122
 OpenBabel10211214253D

 27 28  0  0  1  0  0  0  0  0999 V2000
   47.5970   55.9390   19.8760 C   0  0  0  0  0  0  0  0  0  0  0  0
   48.8990   55.2430   19.4730 C   0  0  2  0  0  0  0  0  0  0  0  0
   50.0720   56.0190   20.0160 C   0  0  0  0  0  0  0  0  0  0  0  0
   49.8810   56.9460   21.0230 C   0  0  0  0  0  0  0  0  0  0  0  0
   50.9570   57.6560   21.5220 C   0  0  0  0  0  0  0  0  0  0  0  0
   52.2240   57.4390   21.0130 C   0  0  0  0  0  0  0  0  0  0  0  0
   52.4160   56.5110   20.0070 C   0  0  0  0  0  0  0  0  0  0  0  0
   51.3400   55.7980   19.5120 C   0  0  0  0  0  0  0  0  0  0  0  0
   53.5950   58.3460   21.6470 S   0  0  0  0  0  0  0  0  0  0  0  0
   53.0600   59.4990   22.2840 O   0  0  0  0  0  0  0  0  0  0  0  0
   54.5470   58.4300   20.5960 O   0  0  0  0  0  0  0  0  0  0  0  0
   54.2830   57.4250   22.8390 N   0  0  0  0  0  0  0  0  0  0  0  0
   54.0210   56.4970   22.9460 H   0  0  0  0  0  0  0  0  0  0  0  0
   54.9470   57.8130   23.4300 H   0  0  0  0  0  0  0  0  0  0  0  0
   48.9900   55.1810   18.0080 N   0  0  0  0  0  0  0  0  0  0  0  0
   49.9490   55.0210   17.7380 H   0  0  0  0  0  0  0  0  0  0  0  0
   48.5240   56.4500   17.4340 C   0  0  0  0  0  0  0  0  0  0  0  0
   48.1510   54.0810   17.5120 C   0  0  0  0  0  0  0  0  0  0  0  0
   48.9620   52.8120   17.4680 C   0  0  0  0  0  0  0  0  0  0  0  0
   49.7700   52.3890   18.3990 N   0  0  0  0  0  0  0  0  0  0  0  0
   50.3250   51.2280   18.0330 C   0  0  0  0  0  0  0  0  0  0  0  0
   49.8740   50.8980   16.8560 N   0  0  0  0  0  0  0  0  0  0  0  0
   48.9710   51.9220   16.4680 O   0  0  0  0  0  0  0  0  0  0  0  0
   51.3130   50.4320   18.8480 C   0  0  0  0  0  0  0  0  0  0  0  0
   50.7930   50.2890   20.2810 C   0  0  0  0  0  0  0  0  0  0  0  0
   51.7380   51.0140   21.2400 C   0  0  0  0  0  0  0  0  0  0  0  0
   50.7260   48.8070   20.6520 C   0  0  0  0  0  0  0  0  0  0  0  0
  2 15  1  6  0  0  0
  2  1  1  0  0  0  0
  2  3  1  0  0  0  0
  3  4  2  0  0  0  0
  4  5  1  0  0  0  0
  6  5  2  0  0  0  0
  6  9  1  0  0  0  0
  7  6  1  0  0  0  0
  8  7  2  0  0  0  0
  8  3  1  0  0  0  0
  9 10  2  0  0  0  0
  9 12  1  0  0  0  0
 11  9  2  0  0  0  0
 12 13  1  0  0  0  0
 12 14  1  0  0  0  0
 16 15  1  0  0  0  0
 17 15  1  0  0  0  0
 18 15  1  0  0  0  0
 19 18  1  0  0  0  0
 19 20  2  0  0  0  0
 21 20  1  0  0  0  0
 21 24  1  0  0  0  0
 22 21  2  0  0  0  0
 23 22  1  0  0  0  0
 23 19  1  0  0  0  0
 24 25  1  0  0  0  0
 25 27  1  0  0  0  0
 25 26  1  0  0  0  0
M  END
>  <MODEL>
6

>  <REMARK>
  Name = ZINC26121122
                            x       y       z     vdW  Elec       q    Type
                         _______ _______ _______ _____ _____    ______ ____

>  <TORSDO>
F 8

>  <minimizedAffinity>
-7.9506862972485157

$$$$
ZINC26121122
 OpenBabel10211214253D

 27 28  0  0  1  0  0  0  0  0999 V2000
   52.8280   49.6550   19.8180 C   0  0  0  0  0  0  0  0  0  0  0  0
   51.6480   50.4780   19.2980 C   0  0  2  0  0  0  0  0  0  0  0  0
   51.7060   51.8660   19.8840 C   0  0  0  0  0  0  0  0  0  0  0  0
   51.4420   52.0610   21.2260 C   0  0  0  0  0  0  0  0  0  0  0  0
   51.4970   53.3340   21.7640 C   0  0  0  0  0  0  0  0  0  0  0  0
   51.8150   54.4110   20.9580 C   0  0  0  0  0  0  0  0  0  0  0  0
   52.0800   54.2160   19.6150 C   0  0  0  0  0  0  0  0  0  0  0  0
   52.0300   52.9430   19.0790 C   0  0  0  0  0  0  0  0  0  0  0  0
   51.8830   56.0330   21.6420 S   0  0  0  0  0  0  0  0  0  0  0  0
   50.6160   56.6300   21.3980 O   0  0  0  0  0  0  0  0  0  0  0  0
   53.0990   56.6140   21.1900 O   0  0  0  0  0  0  0  0  0  0  0  0
   52.0180   55.8660   23.2840 N   0  0  0  0  0  0  0  0  0  0  0  0
   52.2850   55.0150   23.6650 H   0  0  0  0  0  0  0  0  0  0  0  0
   51.8310   56.6200   23.8650 H   0  0  0  0  0  0  0  0  0  0  0  0
   50.3880   49.8330   19.6930 N   0  0  0  0  0  0  0  0  0  0  0  0
   49.7970   50.5070   20.1580 H   0  0  0  0  0  0  0  0  0  0  0  0
   50.6740   48.7200   20.6080 C   0  0  0  0  0  0  0  0  0  0  0  0
   49.7030   49.3220   18.4980 C   0  0  0  0  0  0  0  0  0  0  0  0
   49.2680   50.4780   17.6360 C   0  0  0  0  0  0  0  0  0  0  0  0
   48.7120   51.5800   18.0570 N   0  0  0  0  0  0  0  0  0  0  0  0
   48.4560   52.3900   17.0240 C   0  0  0  0  0  0  0  0  0  0  0  0
   48.8470   51.8090   15.9260 N   0  0  0  0  0  0  0  0  0  0  0  0
   49.3900   50.5530   16.3050 O   0  0  0  0  0  0  0  0  0  0  0  0
   47.8180   53.7520   17.1160 C   0  0  0  0  0  0  0  0  0  0  0  0
   48.7650   54.7120   17.8390 C   0  0  0  0  0  0  0  0  0  0  0  0
   48.4720   54.6840   19.3390 C   0  0  0  0  0  0  0  0  0  0  0  0
   48.5580   56.1310   17.3040 C   0  0  0  0  0  0  0  0  0  0  0  0
  2 15  1  1  0  0  0
  2  1  1  0  0  0  0
  2  3  1  0  0  0  0
  3  4  2  0  0  0  0
  4  5  1  0  0  0  0
  6  9  1  0  0  0  0
  6  5  2  0  0  0  0
  7  6  1  0  0  0  0
  8  7  2  0  0  0  0
  8  3  1  0  0  0  0
  9 12  1  0  0  0  0
 10  9  2  0  0  0  0
 11  9  2  0  0  0  0
 12 13  1  0  0  0  0
 12 14  1  0  0  0  0
 15 16  1  0  0  0  0
 15 17  1  0  0  0  0
 18 15  1  0  0  0  0
 19 20  2  0  0  0  0
 19 18  1  0  0  0  0
 21 24  1  0  0  0  0
 21 20  1  0  0  0  0
 22 23  1  0  0  0  0
 22 21  2  0  0  0  0
 23 19  1  0  0  0  0
 24 25  1  0  0  0  0
 25 26  1  0  0  0  0
 27 25  1  0  0  0  0
M  END
>  <MODEL>
7

>  <REMARK>
  Name = ZINC26121122
                            x       y       z     vdW  Elec       q    Type
                         _______ _______ _______ _____ _____    ______ ____

>  <TORSDO>
F 8

>  <minimizedAffinity>
-7.9311082492224338

$$$$
ZINC26121122
 OpenBabel10211214253D

 27 28  0  0  1  0  0  0  0  0999 V2000
   50.5910   49.4710   20.7280 C   0  0  0  0  0  0  0  0  0  0  0  0
   50.4740   50.2690   19.4280 C   0  0  2  0  0  0  0  0  0  0  0  0
   49.4050   49.6580   18.5580 C   0  0  0  0  0  0  0  0  0  0  0  0
   49.5000   49.7470   17.1820 C   0  0  0  0  0  0  0  0  0  0  0  0
   48.5200   49.1870   16.3840 C   0  0  0  0  0  0  0  0  0  0  0  0
   47.4450   48.5370   16.9620 C   0  0  0  0  0  0  0  0  0  0  0  0
   47.3510   48.4480   18.3390 C   0  0  0  0  0  0  0  0  0  0  0  0
   48.3330   49.0040   19.1360 C   0  0  0  0  0  0  0  0  0  0  0  0
   46.1960   47.8250   15.9460 S   0  0  0  0  0  0  0  0  0  0  0  0
   46.6930   47.8480   14.6140 O   0  0  0  0  0  0  0  0  0  0  0  0
   44.9710   48.4460   16.3120 O   0  0  0  0  0  0  0  0  0  0  0  0
   46.0660   46.2310   16.3740 N   0  0  0  0  0  0  0  0  0  0  0  0
   46.8590   45.7250   16.6100 H   0  0  0  0  0  0  0  0  0  0  0  0
   45.1950   45.8020   16.3910 H   0  0  0  0  0  0  0  0  0  0  0  0
   51.7600   50.2390   18.7170 N   0  0  0  0  0  0  0  0  0  0  0  0
   51.6800   49.6470   17.9040 H   0  0  0  0  0  0  0  0  0  0  0  0
   52.8000   49.7070   19.6090 C   0  0  0  0  0  0  0  0  0  0  0  0
   52.1210   51.6000   18.3000 C   0  0  0  0  0  0  0  0  0  0  0  0
   51.6420   52.5860   19.3340 C   0  0  0  0  0  0  0  0  0  0  0  0
   50.6970   53.4700   19.1670 N   0  0  0  0  0  0  0  0  0  0  0  0
   50.5300   54.1800   20.2890 C   0  0  0  0  0  0  0  0  0  0  0  0
   51.3720   53.7550   21.1870 N   0  0  0  0  0  0  0  0  0  0  0  0
   52.1100   52.7020   20.5830 O   0  0  0  0  0  0  0  0  0  0  0  0
   49.5310   55.2930   20.4810 C   0  0  0  0  0  0  0  0  0  0  0  0
   50.2110   56.4730   21.1790 C   0  0  0  0  0  0  0  0  0  0  0  0
   49.1590   57.5200   21.5500 C   0  0  0  0  0  0  0  0  0  0  0  0
   51.2420   57.0970   20.2360 C   0  0  0  0  0  0  0  0  0  0  0  0
  2  3  1  6  0  0  0
  2  1  1  0  0  0  0
  3  8  1  0  0  0  0
  4  3  2  0  0  0  0
  5  6  2  0  0  0  0
  5  4  1  0  0  0  0
  6  7  1  0  0  0  0
  7  8  2  0  0  0  0
  9 11  2  0  0  0  0
  9 12  1  0  0  0  0
  9  6  1  0  0  0  0
 10  9  2  0  0  0  0
 12 14  1  0  0  0  0
 12 13  1  0  0  0  0
 15  2  1  0  0  0  0
 15 17  1  0  0  0  0
 16 15  1  0  0  0  0
 18 15  1  0  0  0  0
 18 19  1  0  0  0  0
 19 23  1  0  0  0  0
 20 19  2  0  0  0  0
 20 21  1  0  0  0  0
 21 24  1  0  0  0  0
 21 22  2  0  0  0  0
 23 22  1  0  0  0  0
 24 25  1  0  0  0  0
 25 26  1  0  0  0  0
 27 25  1  0  0  0  0
M  END
>  <MODEL>
8

>  <REMARK>
  Name = ZINC26121122
                            x       y       z     vdW  Elec       q    Type
                         _______ _______ _______ _____ _____    ______ ____

>  <TORSDO>
F 8

>  <minimizedAffinity>
-7.6973753146623825

$$$$
ZINC26121122
 OpenBabel10211214253D

 27 28  0  0  1  0  0  0  0  0999 V2000
   52.6670   49.9940   19.9180 C   0  0  0  0  0  0  0  0  0  0  0  0
   51.9070   50.9860   19.0350 C   0  0  2  0  0  0  0  0  0  0  0  0
   51.9290   52.3500   19.6780 C   0  0  0  0  0  0  0  0  0  0  0  0
   51.7300   52.4750   21.0390 C   0  0  0  0  0  0  0  0  0  0  0  0
   51.7510   53.7260   21.6290 C   0  0  0  0  0  0  0  0  0  0  0  0
   51.9730   54.8500   20.8560 C   0  0  0  0  0  0  0  0  0  0  0  0
   52.1740   54.7240   19.4940 C   0  0  0  0  0  0  0  0  0  0  0  0
   52.1560   53.4740   18.9060 C   0  0  0  0  0  0  0  0  0  0  0  0
   51.9980   56.4440   21.6060 S   0  0  0  0  0  0  0  0  0  0  0  0
   50.9930   57.2130   20.9610 O   0  0  0  0  0  0  0  0  0  0  0  0
   53.3590   56.8510   21.6490 O   0  0  0  0  0  0  0  0  0  0  0  0
   51.5110   56.2520   23.1780 N   0  0  0  0  0  0  0  0  0  0  0  0
   51.8160   56.8720   23.8590 H   0  0  0  0  0  0  0  0  0  0  0  0
   50.9200   55.5210   23.4170 H   0  0  0  0  0  0  0  0  0  0  0  0
   50.5150   50.5400   18.8820 N   0  0  0  0  0  0  0  0  0  0  0  0
   49.8960   51.2340   19.2740 H   0  0  0  0  0  0  0  0  0  0  0  0
   50.3290   49.2640   19.5840 C   0  0  0  0  0  0  0  0  0  0  0  0
   50.2120   50.3630   17.4550 C   0  0  0  0  0  0  0  0  0  0  0  0
   48.7190   50.3310   17.2590 C   0  0  0  0  0  0  0  0  0  0  0  0
   48.0260   49.3160   16.8210 N   0  0  0  0  0  0  0  0  0  0  0  0
   46.7280   49.6340   16.7700 C   0  0  0  0  0  0  0  0  0  0  0  0
   46.5780   50.8620   17.1760 N   0  0  0  0  0  0  0  0  0  0  0  0
   47.8730   51.3390   17.5090 O   0  0  0  0  0  0  0  0  0  0  0  0
   45.6190   48.7190   16.3150 C   0  0  0  0  0  0  0  0  0  0  0  0
   46.1730   47.7060   15.3110 C   0  0  0  0  0  0  0  0  0  0  0  0
   45.5790   47.9810   13.9290 C   0  0  0  0  0  0  0  0  0  0  0  0
   45.7980   46.2910   15.7560 C   0  0  0  0  0  0  0  0  0  0  0  0
  2 15  1  1  0  0  0
  2  3  1  0  0  0  0
  2  1  1  0  0  0  0
  3  4  2  0  0  0  0
  4  5  1  0  0  0  0
  6  9  1  0  0  0  0
  6  5  2  0  0  0  0
  7  6  1  0  0  0  0
  8  7  2  0  0  0  0
  8  3  1  0  0  0  0
  9 11  2  0  0  0  0
  9 12  1  0  0  0  0
 10  9  2  0  0  0  0
 12 14  1  0  0  0  0
 12 13  1  0  0  0  0
 15 16  1  0  0  0  0
 15 17  1  0  0  0  0
 18 15  1  0  0  0  0
 19 18  1  0  0  0  0
 19 23  1  0  0  0  0
 20 19  2  0  0  0  0
 21 20  1  0  0  0  0
 21 22  2  0  0  0  0
 22 23  1  0  0  0  0
 24 21  1  0  0  0  0
 25 27  1  0  0  0  0
 25 24  1  0  0  0  0
 26 25  1  0  0  0  0
M  END
>  <MODEL>
9

>  <REMARK>
  Name = ZINC26121122
                            x       y       z     vdW  Elec       q    Type
                         _______ _______ _______ _____ _____    ______ ____

>  <TORSDO>
F 8

>  <minimizedAffinity>
-7.6496073867116889

$$$$
ZINC20244478
 OpenBabel10211214263D

 21 22  0  0  0  0  0  0  0  0999 V2000
   50.4060   52.7570   19.0810 C   0  0  0  0  0  0  0  0  0  0  0  0
   51.0510   51.5940   18.8660 N   0  0  0  0  0  0  0  0  0  0  0  0
   50.3720   50.5560   18.1190 C   0  0  0  0  0  0  0  0  0  0  0  0
   49.5990   49.6350   19.0970 C   0  0  0  0  0  0  0  0  0  0  0  0
   50.5540   48.8440   19.8970 C   0  0  0  0  0  0  0  0  0  0  0  0
   51.4390   49.6430   20.7450 N   0  0  0  0  0  0  0  0  0  0  0  0
   51.7390   49.0510   21.6210 H   0  0  0  0  0  0  0  0  0  0  0  0
   50.9100   50.5480   21.0770 H   0  0  0  0  0  0  0  0  0  0  0  0
   52.6260   50.0370   20.0150 C   0  0  0  0  0  0  0  0  0  0  0  0
   52.4210   51.4360   19.3960 C   0  0  0  0  0  0  0  0  0  0  0  0
   49.3170   52.9520   18.5770 O   0  0  0  0  0  0  0  0  0  0  0  0
   51.5860   54.9220   19.3700 C   0  0  0  0  0  0  0  0  0  0  0  0
   51.0200   53.7920   19.9270 C   0  0  0  0  0  0  0  0  0  0  0  0
   51.0430   53.6560   21.3930 C   0  0  0  0  0  0  0  0  0  0  0  0
   51.6240   54.6320   22.1210 N   0  0  0  0  0  0  0  0  0  0  0  0
   52.1580   55.7070   21.5160 C   0  0  0  0  0  0  0  0  0  0  0  0
   52.6700   56.5730   22.1990 O   0  0  0  0  0  0  0  0  0  0  0  0
   51.6640   54.5500   23.2170 H   0  0  0  0  0  0  0  0  0  0  0  0
   50.5540   52.6820   21.9350 O   0  0  0  0  0  0  0  0  0  0  0  0
   52.1440   55.8560   20.1820 N   0  0  0  0  0  0  0  0  0  0  0  0
   52.5970   56.7600   19.7510 H   0  0  0  0  0  0  0  0  0  0  0  0
  1 13  1  0  0  0  0
  2  1  1  0  0  0  0
  2 10  1  0  0  0  0
  3  2  1  0  0  0  0
  3  4  1  0  0  0  0
  4  5  1  0  0  0  0
  5  6  1  0  0  0  0
  6  8  1  0  0  0  0
  6  7  1  0  0  0  0
  9  6  1  0  0  0  0
 10  9  1  0  0  0  0
 11  1  2  0  0  0  0
 12 13  2  0  0  0  0
 12 20  1  0  0  0  0
 13 14  1  0  0  0  0
 14 19  2  0  0  0  0
 14 15  1  0  0  0  0
 15 18  1  0  0  0  0
 16 15  1  0  0  0  0
 16 17  2  0  0  0  0
 20 16  1  0  0  0  0
 21 20  1  0  0  0  0
M  END
>  <MODEL>
1

>  <REMARK>
  Name = ZINC20244478
                            x       y       z     vdW  Elec       q    Type
                         _______ _______ _______ _____ _____    ______ ____

>  <TORSDO>
F 1

>  <minimizedAffinity>
-6.9142664521478912

$$$$
ZINC20244478
 OpenBabel10211214263D

 21 22  0  0  0  0  0  0  0  0999 V2000
   50.1040   54.3850   20.6090 C   0  0  0  0  0  0  0  0  0  0  0  0
   50.4780   55.4190   21.3890 N   0  0  0  0  0  0  0  0  0  0  0  0
   49.6820   56.6270   21.3650 C   0  0  0  0  0  0  0  0  0  0  0  0
   50.2350   57.5910   20.2860 C   0  0  0  0  0  0  0  0  0  0  0  0
   51.5470   58.1150   20.7120 C   0  0  0  0  0  0  0  0  0  0  0  0
   52.5810   57.0920   20.8760 N   0  0  0  0  0  0  0  0  0  0  0  0
   53.5700   57.5400   20.6980 H   0  0  0  0  0  0  0  0  0  0  0  0
   52.4110   56.2800   20.1540 H   0  0  0  0  0  0  0  0  0  0  0  0
   52.5480   56.5430   22.2150 C   0  0  0  0  0  0  0  0  0  0  0  0
   51.6800   55.2670   22.2360 C   0  0  0  0  0  0  0  0  0  0  0  0
   49.0690   54.4450   19.9740 O   0  0  0  0  0  0  0  0  0  0  0  0
   50.8390   52.1710   21.4580 C   0  0  0  0  0  0  0  0  0  0  0  0
   50.9500   53.1850   20.5260 C   0  0  0  0  0  0  0  0  0  0  0  0
   51.9330   53.0250   19.4420 C   0  0  0  0  0  0  0  0  0  0  0  0
   52.6860   51.9060   19.4150 N   0  0  0  0  0  0  0  0  0  0  0  0
   52.5290   50.9570   20.3540 C   0  0  0  0  0  0  0  0  0  0  0  0
   53.2190   49.9570   20.3010 O   0  0  0  0  0  0  0  0  0  0  0  0
   53.4360   51.7670   18.6230 H   0  0  0  0  0  0  0  0  0  0  0  0
   52.0680   53.8860   18.5930 O   0  0  0  0  0  0  0  0  0  0  0  0
   51.6350   51.0770   21.3480 N   0  0  0  0  0  0  0  0  0  0  0  0
   51.5570   50.2630   22.0840 H   0  0  0  0  0  0  0  0  0  0  0  0
  1  2  1  0  0  0  0
  2 10  1  0  0  0  0
  3  2  1  0  0  0  0
  4  5  1  0  0  0  0
  4  3  1  0  0  0  0
  5  6  1  0  0  0  0
  6  9  1  0  0  0  0
  7  6  1  0  0  0  0
  8  6  1  0  0  0  0
  9 10  1  0  0  0  0
 11  1  2  0  0  0  0
 13  1  1  0  0  0  0
 13 12  2  0  0  0  0
 14 13  1  0  0  0  0
 15 14  1  0  0  0  0
 15 16  1  0  0  0  0
 16 20  1  0  0  0  0
 17 16  2  0  0  0  0
 18 15  1  0  0  0  0
 19 14  2  0  0  0  0
 20 12  1  0  0  0  0
 20 21  1  0  0  0  0
M  END
>  <MODEL>
2

>  <REMARK>
  Name = ZINC20244478
                            x       y       z     vdW  Elec       q    Type
                         _______ _______ _______ _____ _____    ______ ____

>  <TORSDO>
F 1

>  <minimizedAffinity>
-6.6658023439640637

$$$$
ZINC20244478
 OpenBabel10211214263D

 21 22  0  0  0  0  0  0  0  0999 V2000
   52.1100   53.5560   19.2110 C   0  0  0  0  0  0  0  0  0  0  0  0
   51.4940   54.6940   19.5880 N   0  0  0  0  0  0  0  0  0  0  0  0
   52.0400   55.9560   19.1390 C   0  0  0  0  0  0  0  0  0  0  0  0
   53.0600   56.4810   20.1810 C   0  0  0  0  0  0  0  0  0  0  0  0
   52.3520   56.8890   21.4090 C   0  0  0  0  0  0  0  0  0  0  0  0
   51.6390   55.8040   22.0850 N   0  0  0  0  0  0  0  0  0  0  0  0
   51.5750   56.0220   23.1610 H   0  0  0  0  0  0  0  0  0  0  0  0
   52.1820   54.8590   21.9340 H   0  0  0  0  0  0  0  0  0  0  0  0
   50.3000   55.6640   21.5530 C   0  0  0  0  0  0  0  0  0  0  0  0
   50.2890   54.5980   20.4370 C   0  0  0  0  0  0  0  0  0  0  0  0
   53.0470   53.5980   18.4370 O   0  0  0  0  0  0  0  0  0  0  0  0
   52.1150   51.7790   20.9450 C   0  0  0  0  0  0  0  0  0  0  0  0
   51.6490   52.2620   19.7370 C   0  0  0  0  0  0  0  0  0  0  0  0
   50.6710   51.4490   18.9960 C   0  0  0  0  0  0  0  0  0  0  0  0
   50.2860   50.2670   19.5220 N   0  0  0  0  0  0  0  0  0  0  0  0
   50.7790   49.8530   20.7020 C   0  0  0  0  0  0  0  0  0  0  0  0
   50.4090   48.7870   21.1520 O   0  0  0  0  0  0  0  0  0  0  0  0
   49.5650   49.6350   18.9830 H   0  0  0  0  0  0  0  0  0  0  0  0
   50.2250   51.8300   17.9300 O   0  0  0  0  0  0  0  0  0  0  0  0
   51.6660   50.5810   21.3990 N   0  0  0  0  0  0  0  0  0  0  0  0
   52.0300   50.1850   22.3590 H   0  0  0  0  0  0  0  0  0  0  0  0
  1  2  1  0  0  0  0
  1 13  1  0  0  0  0
  2 10  1  0  0  0  0
  3  2  1  0  0  0  0
  3  4  1  0  0  0  0
  4  5  1  0  0  0  0
  5  6  1  0  0  0  0
  6  7  1  0  0  0  0
  8  6  1  0  0  0  0
  9  6  1  0  0  0  0
 10  9  1  0  0  0  0
 11  1  2  0  0  0  0
 12 20  1  0  0  0  0
 13 12  2  0  0  0  0
 14 15  1  0  0  0  0
 14 13  1  0  0  0  0
 15 16  1  0  0  0  0
 16 17  2  0  0  0  0
 16 20  1  0  0  0  0
 18 15  1  0  0  0  0
 19 14  2  0  0  0  0
 20 21  1  0  0  0  0
M  END
>  <MODEL>
3

>  <REMARK>
  Name = ZINC20244478
                            x       y       z     vdW  Elec       q    Type
                         _______ _______ _______ _____ _____    ______ ____

>  <TORSDO>
F 1

>  <minimizedAffinity>
-6.5467835455664556

$$$$
ZINC20244478
 OpenBabel10211214263D

 21 22  0  0  0  0  0  0  0  0999 V2000
   51.6670   55.0060   21.1030 C   0  0  0  0  0  0  0  0  0  0  0  0
   50.9460   55.7840   20.2730 N   0  0  0  0  0  0  0  0  0  0  0  0
   50.8870   57.2060   20.5340 C   0  0  0  0  0  0  0  0  0  0  0  0
   49.6710   57.5160   21.4440 C   0  0  0  0  0  0  0  0  0  0  0  0
   48.4200   57.3040   20.6920 C   0  0  0  0  0  0  0  0  0  0  0  0
   48.2140   55.9290   20.2360 N   0  0  0  0  0  0  0  0  0  0  0  0
   47.1360   55.7290   20.1500 H   0  0  0  0  0  0  0  0  0  0  0  0
   48.6600   55.2320   20.9600 H   0  0  0  0  0  0  0  0  0  0  0  0
   48.8340   55.7220   18.9440 C   0  0  0  0  0  0  0  0  0  0  0  0
   50.2550   55.1480   19.1310 C   0  0  0  0  0  0  0  0  0  0  0  0
   52.3230   55.5110   21.9940 O   0  0  0  0  0  0  0  0  0  0  0  0
   50.9130   52.7350   21.7660 C   0  0  0  0  0  0  0  0  0  0  0  0
   51.6610   53.5450   20.9330 C   0  0  0  0  0  0  0  0  0  0  0  0
   52.4450   52.9040   19.8640 C   0  0  0  0  0  0  0  0  0  0  0  0
   52.4070   51.5600   19.7560 N   0  0  0  0  0  0  0  0  0  0  0  0
   51.6600   50.8290   20.6010 C   0  0  0  0  0  0  0  0  0  0  0  0
   51.6420   49.6200   20.4750 O   0  0  0  0  0  0  0  0  0  0  0  0
   52.9920   51.0550   18.9740 H   0  0  0  0  0  0  0  0  0  0  0  0
   53.1170   53.5710   19.1000 O   0  0  0  0  0  0  0  0  0  0  0  0
   50.9310   51.3910   21.5790 N   0  0  0  0  0  0  0  0  0  0  0  0
   50.3410   50.7350   22.2350 H   0  0  0  0  0  0  0  0  0  0  0  0
  1 11  2  0  0  0  0
  2  3  1  0  0  0  0
  2  1  1  0  0  0  0
  3  4  1  0  0  0  0
  5  4  1  0  0  0  0
  6  5  1  0  0  0  0
  6  8  1  0  0  0  0
  7  6  1  0  0  0  0
  9 10  1  0  0  0  0
  9  6  1  0  0  0  0
 10  2  1  0  0  0  0
 13  1  1  0  0  0  0
 13 12  2  0  0  0  0
 14 13  1  0  0  0  0
 15 14  1  0  0  0  0
 15 16  1  0  0  0  0
 16 20  1  0  0  0  0
 17 16  2  0  0  0  0
 18 15  1  0  0  0  0
 19 14  2  0  0  0  0
 20 12  1  0  0  0  0
 20 21  1  0  0  0  0
M  END
>  <MODEL>
4

>  <REMARK>
  Name = ZINC20244478
                            x       y       z     vdW  Elec       q    Type
                         _______ _______ _______ _____ _____    ______ ____

>  <TORSDO>
F 1

>  <minimizedAffinity>
-6.5431515866091186

$$$$
ZINC20244478
 OpenBabel10211214263D

 21 22  0  0  0  0  0  0  0  0999 V2000
   51.5600   53.1280   21.4030 C   0  0  0  0  0  0  0  0  0  0  0  0
   50.6460   52.6350   20.5450 N   0  0  0  0  0  0  0  0  0  0  0  0
   50.5270   51.1990   20.4120 C   0  0  0  0  0  0  0  0  0  0  0  0
   51.4610   50.7030   19.2790 C   0  0  0  0  0  0  0  0  0  0  0  0
   50.9470   51.1610   17.9740 C   0  0  0  0  0  0  0  0  0  0  0  0
   50.8990   52.6150   17.8210 N   0  0  0  0  0  0  0  0  0  0  0  0
   50.9990   52.8740   16.7570 H   0  0  0  0  0  0  0  0  0  0  0  0
   51.7240   53.0710   18.3880 H   0  0  0  0  0  0  0  0  0  0  0  0
   49.6440   53.1400   18.3150 C   0  0  0  0  0  0  0  0  0  0  0  0
   49.8050   53.5830   19.7850 C   0  0  0  0  0  0  0  0  0  0  0  0
   52.2000   52.3740   22.1100 O   0  0  0  0  0  0  0  0  0  0  0  0
   51.4410   55.2900   22.6160 C   0  0  0  0  0  0  0  0  0  0  0  0
   51.7850   54.5790   21.4830 C   0  0  0  0  0  0  0  0  0  0  0  0
   52.3900   55.3150   20.3600 C   0  0  0  0  0  0  0  0  0  0  0  0
   52.5680   56.6460   20.4850 N   0  0  0  0  0  0  0  0  0  0  0  0
   52.2100   57.2790   21.6150 C   0  0  0  0  0  0  0  0  0  0  0  0
   52.3890   58.4790   21.7000 O   0  0  0  0  0  0  0  0  0  0  0  0
   53.0080   57.2220   19.6570 H   0  0  0  0  0  0  0  0  0  0  0  0
   52.7150   54.7360   19.3410 O   0  0  0  0  0  0  0  0  0  0  0  0
   51.6630   56.6290   22.6550 N   0  0  0  0  0  0  0  0  0  0  0  0
   51.3940   57.2060   23.5510 H   0  0  0  0  0  0  0  0  0  0  0  0
  1 13  1  0  0  0  0
  1 11  2  0  0  0  0
  2  1  1  0  0  0  0
  3  2  1  0  0  0  0
  4  3  1  0  0  0  0
  5  4  1  0  0  0  0
  6  5  1  0  0  0  0
  6  9  1  0  0  0  0
  6  8  1  0  0  0  0
  7  6  1  0  0  0  0
  9 10  1  0  0  0  0
 10  2  1  0  0  0  0
 12 20  1  0  0  0  0
 13 12  2  0  0  0  0
 14 15  1  0  0  0  0
 14 13  1  0  0  0  0
 15 16  1  0  0  0  0
 16 17  2  0  0  0  0
 16 20  1  0  0  0  0
 18 15  1  0  0  0  0
 19 14  2  0  0  0  0
 20 21  1  0  0  0  0
M  END
>  <MODEL>
5

>  <REMARK>
  Name = ZINC20244478
                            x       y       z     vdW  Elec       q    Type
                         _______ _______ _______ _____ _____    ______ ____

>  <TORSDO>
F 1

>  <minimizedAffinity>
-6.531435500555351

$$$$
ZINC20244478
 OpenBabel10211214263D

 21 22  0  0  0  0  0  0  0  0999 V2000
   51.9260   55.0530   19.6610 C   0  0  0  0  0  0  0  0  0  0  0  0
   52.1970   53.8280   20.1520 N   0  0  0  0  0  0  0  0  0  0  0  0
   52.9260   52.8950   19.3210 C   0  0  0  0  0  0  0  0  0  0  0  0
   51.9270   52.0470   18.4940 C   0  0  0  0  0  0  0  0  0  0  0  0
   51.1930   51.1310   19.3860 C   0  0  0  0  0  0  0  0  0  0  0  0
   50.3780   51.8000   20.4000 N   0  0  0  0  0  0  0  0  0  0  0  0
   49.5290   51.1550   20.6720 H   0  0  0  0  0  0  0  0  0  0  0  0
   50.0010   52.7520   19.9980 H   0  0  0  0  0  0  0  0  0  0  0  0
   51.1600   52.0700   21.5890 C   0  0  0  0  0  0  0  0  0  0  0  0
   51.7410   53.4980   21.5190 C   0  0  0  0  0  0  0  0  0  0  0  0
   52.3690   55.3870   18.5780 O   0  0  0  0  0  0  0  0  0  0  0  0
   49.7270   56.0520   20.2370 C   0  0  0  0  0  0  0  0  0  0  0  0
   51.0940   55.9880   20.4340 C   0  0  0  0  0  0  0  0  0  0  0  0
   51.6910   56.8750   21.4440 C   0  0  0  0  0  0  0  0  0  0  0  0
   50.8820   57.7170   22.1210 N   0  0  0  0  0  0  0  0  0  0  0  0
   49.5600   57.7310   21.8810 C   0  0  0  0  0  0  0  0  0  0  0  0
   48.8560   58.4970   22.5100 O   0  0  0  0  0  0  0  0  0  0  0  0
   51.3040   58.3990   22.8740 H   0  0  0  0  0  0  0  0  0  0  0  0
   52.8880   56.8550   21.6600 O   0  0  0  0  0  0  0  0  0  0  0  0
   48.9910   56.9270   20.9690 N   0  0  0  0  0  0  0  0  0  0  0  0
   47.9030   56.9880   20.8210 H   0  0  0  0  0  0  0  0  0  0  0  0
  1  2  1  0  0  0  0
  1 13  1  0  0  0  0
  2 10  1  0  0  0  0
  3  2  1  0  0  0  0
  4  3  1  0  0  0  0
  4  5  1  0  0  0  0
  5  6  1  0  0  0  0
  6  7  1  0  0  0  0
  6  9  1  0  0  0  0
  8  6  1  0  0  0  0
 10  9  1  0  0  0  0
 11  1  2  0  0  0  0
 12 13  2  0  0  0  0
 12 20  1  0  0  0  0
 13 14  1  0  0  0  0
 14 19  2  0  0  0  0
 14 15  1  0  0  0  0
 15 18  1  0  0  0  0
 16 15  1  0  0  0  0
 16 17  2  0  0  0  0
 20 16  1  0  0  0  0
 21 20  1  0  0  0  0
M  END
>  <MODEL>
6

>  <REMARK>
  Name = ZINC20244478
                            x       y       z     vdW  Elec       q    Type
                         _______ _______ _______ _____ _____    ______ ____

>  <TORSDO>
F 1

>  <minimizedAffinity>
-6.3593680441526468

$$$$
ZINC20244478
 OpenBabel10211214263D

 21 22  0  0  0  0  0  0  0  0999 V2000
   48.6130   50.4500   17.4750 C   0  0  0  0  0  0  0  0  0  0  0  0
   48.0610   49.4940   16.7020 N   0  0  0  0  0  0  0  0  0  0  0  0
   46.7440   49.7280   16.1500 C   0  0  0  0  0  0  0  0  0  0  0  0
   45.6690   49.1840   17.1230 C   0  0  0  0  0  0  0  0  0  0  0  0
   45.7180   47.7100   17.1470 C   0  0  0  0  0  0  0  0  0  0  0  0
   46.9840   47.1560   17.6280 N   0  0  0  0  0  0  0  0  0  0  0  0
   46.8040   46.1690   18.0790 H   0  0  0  0  0  0  0  0  0  0  0  0
   47.4170   47.8300   18.3810 H   0  0  0  0  0  0  0  0  0  0  0  0
   47.9240   47.0080   16.5370 C   0  0  0  0  0  0  0  0  0  0  0  0
   48.8280   48.2570   16.4520 C   0  0  0  0  0  0  0  0  0  0  0  0
   48.0480   51.5170   17.6220 O   0  0  0  0  0  0  0  0  0  0  0  0
   51.0560   50.8270   17.7120 C   0  0  0  0  0  0  0  0  0  0  0  0
   49.9010   50.2020   18.1420 C   0  0  0  0  0  0  0  0  0  0  0  0
   49.9940   49.2880   19.2920 C   0  0  0  0  0  0  0  0  0  0  0  0
   51.2010   49.0930   19.8630 N   0  0  0  0  0  0  0  0  0  0  0  0
   52.2870   49.7310   19.3950 C   0  0  0  0  0  0  0  0  0  0  0  0
   53.3600   49.5390   19.9330 O   0  0  0  0  0  0  0  0  0  0  0  0
   51.3010   48.4070   20.7170 H   0  0  0  0  0  0  0  0  0  0  0  0
   49.0060   48.7170   19.7140 O   0  0  0  0  0  0  0  0  0  0  0  0
   52.2260   50.5740   18.3520 N   0  0  0  0  0  0  0  0  0  0  0  0
   53.1520   51.0640   18.0190 H   0  0  0  0  0  0  0  0  0  0  0  0
  1 11  2  0  0  0  0
  1 13  1  0  0  0  0
  2  1  1  0  0  0  0
  3  2  1  0  0  0  0
  3  4  1  0  0  0  0
  4  5  1  0  0  0  0
  5  6  1  0  0  0  0
  6  7  1  0  0  0  0
  6  8  1  0  0  0  0
  9  6  1  0  0  0  0
 10  9  1  0  0  0  0
 10  2  1  0  0  0  0
 12 13  2  0  0  0  0
 12 20  1  0  0  0  0
 13 14  1  0  0  0  0
 14 19  2  0  0  0  0
 14 15  1  0  0  0  0
 15 18  1  0  0  0  0
 16 15  1  0  0  0  0
 16 17  2  0  0  0  0
 20 16  1  0  0  0  0
 21 20  1  0  0  0  0
M  END
>  <MODEL>
7

>  <REMARK>
  Name = ZINC20244478
                            x       y       z     vdW  Elec       q    Type
                         _______ _______ _______ _____ _____    ______ ____

>  <TORSDO>
F 1

>  <minimizedAffinity>
-6.3215827227919767

$$$$
ZINC20244478
 OpenBabel10211214263D

 21 22  0  0  0  0  0  0  0  0999 V2000
   50.4050   54.7330   20.4500 C   0  0  0  0  0  0  0  0  0  0  0  0
   49.2280   55.1370   19.9340 N   0  0  0  0  0  0  0  0  0  0  0  0
   48.3360   54.1390   19.3830 C   0  0  0  0  0  0  0  0  0  0  0  0
   48.6290   53.9590   17.8720 C   0  0  0  0  0  0  0  0  0  0  0  0
   48.2080   55.1660   17.1350 C   0  0  0  0  0  0  0  0  0  0  0  0
   48.9190   56.3860   17.5190 N   0  0  0  0  0  0  0  0  0  0  0  0
   48.9420   57.0800   16.6670 H   0  0  0  0  0  0  0  0  0  0  0  0
   49.9480   56.1340   17.8140 H   0  0  0  0  0  0  0  0  0  0  0  0
   48.2580   57.0340   18.6330 C   0  0  0  0  0  0  0  0  0  0  0  0
   48.9020   56.5780   19.9600 C   0  0  0  0  0  0  0  0  0  0  0  0
   50.6600   53.5460   20.5280 O   0  0  0  0  0  0  0  0  0  0  0  0
   51.4570   56.0770   22.2530 C   0  0  0  0  0  0  0  0  0  0  0  0
   51.3820   55.7270   20.9180 C   0  0  0  0  0  0  0  0  0  0  0  0
   52.3140   56.3730   19.9800 C   0  0  0  0  0  0  0  0  0  0  0  0
   53.1870   57.2820   20.4620 N   0  0  0  0  0  0  0  0  0  0  0  0
   53.2070   57.5790   21.7730 C   0  0  0  0  0  0  0  0  0  0  0  0
   54.0080   58.3980   22.1780 O   0  0  0  0  0  0  0  0  0  0  0  0
   53.8860   57.7880   19.7800 H   0  0  0  0  0  0  0  0  0  0  0  0
   52.2940   56.0980   18.7950 O   0  0  0  0  0  0  0  0  0  0  0  0
   52.3710   56.9980   22.6490 N   0  0  0  0  0  0  0  0  0  0  0  0
   52.4410   57.2850   23.7080 H   0  0  0  0  0  0  0  0  0  0  0  0
  1 11  2  0  0  0  0
  1 13  1  0  0  0  0
  2 10  1  0  0  0  0
  2  1  1  0  0  0  0
  3  2  1  0  0  0  0
  4  3  1  0  0  0  0
  5  6  1  0  0  0  0
  5  4  1  0  0  0  0
  6  8  1  0  0  0  0
  6  9  1  0  0  0  0
  7  6  1  0  0  0  0
  9 10  1  0  0  0  0
 12 20  1  0  0  0  0
 13 12  2  0  0  0  0
 14 15  1  0  0  0  0
 14 13  1  0  0  0  0
 15 16  1  0  0  0  0
 16 17  2  0  0  0  0
 16 20  1  0  0  0  0
 18 15  1  0  0  0  0
 19 14  2  0  0  0  0
 20 21  1  0  0  0  0
M  END
>  <MODEL>
8

>  <REMARK>
  Name = ZINC20244478
                            x       y       z     vdW  Elec       q    Type
                         _______ _______ _______ _____ _____    ______ ____

>  <TORSDO>
F 1

>  <minimizedAffinity>
-6.2300683048817396

$$$$
ZINC20244478
 OpenBabel10211214263D

 21 22  0  0  0  0  0  0  0  0999 V2000
   49.8190   54.7040   19.2940 C   0  0  0  0  0  0  0  0  0  0  0  0
   49.9210   55.1760   20.5520 N   0  0  0  0  0  0  0  0  0  0  0  0
   49.1890   56.3740   20.9030 C   0  0  0  0  0  0  0  0  0  0  0  0
   50.0780   57.6180   20.6520 C   0  0  0  0  0  0  0  0  0  0  0  0
   51.1780   57.6500   21.6340 C   0  0  0  0  0  0  0  0  0  0  0  0
   52.0900   56.5070   21.5570 N   0  0  0  0  0  0  0  0  0  0  0  0
   53.0850   56.8090   21.9140 H   0  0  0  0  0  0  0  0  0  0  0  0
   52.1620   56.1660   20.5140 H   0  0  0  0  0  0  0  0  0  0  0  0
   51.6090   55.4140   22.3760 C   0  0  0  0  0  0  0  0  0  0  0  0
   50.7720   54.4450   21.5140 C   0  0  0  0  0  0  0  0  0  0  0  0
   49.0530   55.2290   18.5070 O   0  0  0  0  0  0  0  0  0  0  0  0
   50.0590   52.3150   18.6660 C   0  0  0  0  0  0  0  0  0  0  0  0
   50.6330   53.5550   18.8720 C   0  0  0  0  0  0  0  0  0  0  0  0
   52.0810   53.6940   18.6480 C   0  0  0  0  0  0  0  0  0  0  0  0
   52.7810   52.6060   18.2660 N   0  0  0  0  0  0  0  0  0  0  0  0
   52.1620   51.4260   18.0850 C   0  0  0  0  0  0  0  0  0  0  0  0
   52.8190   50.4650   17.7350 O   0  0  0  0  0  0  0  0  0  0  0  0
   53.8670   52.6800   18.1030 H   0  0  0  0  0  0  0  0  0  0  0  0
   52.6350   54.7650   18.8100 O   0  0  0  0  0  0  0  0  0  0  0  0
   50.8420   51.2760   18.2760 N   0  0  0  0  0  0  0  0  0  0  0  0
   50.3980   50.2840   18.1100 H   0  0  0  0  0  0  0  0  0  0  0  0
  1  2  1  0  0  0  0
  2  3  1  0  0  0  0
  2 10  1  0  0  0  0
  4  3  1  0  0  0  0
  4  5  1  0  0  0  0
  6  5  1  0  0  0  0
  6  7  1  0  0  0  0
  6  9  1  0  0  0  0
  8  6  1  0  0  0  0
 10  9  1  0  0  0  0
 11  1  2  0  0  0  0
 12 13  2  0  0  0  0
 13  1  1  0  0  0  0
 14 19  2  0  0  0  0
 14 13  1  0  0  0  0
 15 14  1  0  0  0  0
 16 15  1  0  0  0  0
 16 20  1  0  0  0  0
 17 16  2  0  0  0  0
 18 15  1  0  0  0  0
 20 12  1  0  0  0  0
 21 20  1  0  0  0  0
M  END
>  <MODEL>
9

>  <REMARK>
  Name = ZINC20244478
                            x       y       z     vdW  Elec       q    Type
                         _______ _______ _______ _____ _____    ______ ____

>  <TORSDO>
F 1

>  <minimizedAffinity>
-6.2011582048630958

$$$$
ZINC50351640
 OpenBabel10211214263D

 23 24  0  0  1  0  0  0  0  0999 V2000
   50.3250   55.5410   21.3250 N   0  0  0  0  0  0  0  0  0  0  0  0
   49.5210   55.4350   21.8570 H   0  0  0  0  0  0  0  0  0  0  0  0
   47.9020   58.0270   20.9070 C   0  0  0  0  0  0  0  0  0  0  0  0
   47.9470   56.7000   20.1460 C   0  0  0  0  0  0  0  0  0  0  0  0
   49.2700   56.5930   19.3850 C   0  0  0  0  0  0  0  0  0  0  0  0
   50.4330   56.6520   20.3770 C   0  0  1  0  0  0  0  0  0  0  0  0
   50.3890   57.9790   21.1380 C   0  0  1  0  0  0  0  0  0  0  0  0
   49.0660   58.0860   21.8980 C   0  0  0  0  0  0  0  0  0  0  0  0
   51.5060   58.0350   22.0900 N   0  0  0  0  0  0  0  0  0  0  0  0
   51.1640   58.3230   22.9940 H   0  0  0  0  0  0  0  0  0  0  0  0
   52.1930   58.6990   21.7630 H   0  0  0  0  0  0  0  0  0  0  0  0
   51.9300   57.1230   22.1660 H   0  0  0  0  0  0  0  0  0  0  0  0
   51.5740   54.4670   21.4900 S   0  0  0  0  0  0  0  0  0  0  0  0
   51.8060   54.3910   22.8900 O   0  0  0  0  0  0  0  0  0  0  0  0
   52.5840   54.9480   20.6130 O   0  0  0  0  0  0  0  0  0  0  0  0
   50.9170   52.8900   20.8780 C   0  0  0  0  0  0  0  0  0  0  0  0
   51.7950   51.7500   21.3860 C   0  0  0  0  0  0  0  0  0  0  0  0
   51.1160   50.4060   21.1120 C   0  0  0  0  0  0  0  0  0  0  0  0
   50.9500   50.1860   19.3160 S   0  0  0  0  0  0  0  0  0  0  0  0
   50.1010   51.7160   18.8240 C   0  0  0  0  0  0  0  0  0  0  0  0
   52.2490   50.1820   18.7400 O   0  0  0  0  0  0  0  0  0  0  0  0
   50.0810   49.0880   19.0740 O   0  0  0  0  0  0  0  0  0  0  0  0
   50.8940   52.9140   19.3530 C   0  0  0  0  0  0  0  0  0  0  0  0
  1 13  1  0  0  0  0
  1  2  1  0  0  0  0
  3  8  1  0  0  0  0
  4  3  1  0  0  0  0
  5  4  1  0  0  0  0
  5  6  1  0  0  0  0
  6  7  1  0  0  0  0
  6  1  1  1  0  0  0
  7  8  1  0  0  0  0
  7  9  1  1  0  0  0
  9 12  1  0  0  0  0
  9 10  1  0  0  0  0
 11  9  1  0  0  0  0
 13 14  2  0  0  0  0
 15 13  2  0  0  0  0
 16 17  1  0  0  0  0
 16 13  1  0  0  0  0
 18 17  1  0  0  0  0
 19 18  1  0  0  0  0
 20 19  1  0  0  0  0
 20 23  1  0  0  0  0
 21 19  2  0  0  0  0
 22 19  2  0  0  0  0
 23 16  1  0  0  0  0
M  END
>  <MODEL>
1

>  <REMARK>
  Name = ZINC50351640
                            x       y       z     vdW  Elec       q    Type
                         _______ _______ _______ _____ _____    ______ ____

>  <TORSDO>
F 4

>  <minimizedAffinity>
-7.4304646854367373

$$$$
ZINC50351640
 OpenBabel10211214263D

 23 24  0  0  1  0  0  0  0  0999 V2000
   50.9810   52.6700   17.9200 N   0  0  0  0  0  0  0  0  0  0  0  0
   50.9690   53.0060   17.0100 H   0  0  0  0  0  0  0  0  0  0  0  0
   47.8920   52.4970   16.2910 C   0  0  0  0  0  0  0  0  0  0  0  0
   48.4120   53.7040   17.0740 C   0  0  0  0  0  0  0  0  0  0  0  0
   48.6930   53.2930   18.5200 C   0  0  0  0  0  0  0  0  0  0  0  0
   49.7460   52.1830   18.5380 C   0  0  1  0  0  0  0  0  0  0  0  0
   49.2270   50.9740   17.7550 C   0  0  1  0  0  0  0  0  0  0  0  0
   48.9450   51.3870   16.3100 C   0  0  0  0  0  0  0  0  0  0  0  0
   50.2370   49.9090   17.7720 N   0  0  0  0  0  0  0  0  0  0  0  0
   50.1250   49.3250   16.9580 H   0  0  0  0  0  0  0  0  0  0  0  0
   50.1220   49.3500   18.6040 H   0  0  0  0  0  0  0  0  0  0  0  0
   51.1590   50.3180   17.7680 H   0  0  0  0  0  0  0  0  0  0  0  0
   52.3990   52.6490   18.7750 S   0  0  0  0  0  0  0  0  0  0  0  0
   53.4160   52.8150   17.7960 O   0  0  0  0  0  0  0  0  0  0  0  0
   52.3330   51.4650   19.5580 O   0  0  0  0  0  0  0  0  0  0  0  0
   52.3190   54.1110   19.8470 C   0  0  0  0  0  0  0  0  0  0  0  0
   51.4790   53.7850   21.0790 C   0  0  0  0  0  0  0  0  0  0  0  0
   51.6180   54.9000   22.1160 C   0  0  0  0  0  0  0  0  0  0  0  0
   50.9560   56.4410   21.4160 S   0  0  0  0  0  0  0  0  0  0  0  0
   51.8760   56.5740   19.8550 C   0  0  0  0  0  0  0  0  0  0  0  0
   49.5800   56.2470   21.1190 O   0  0  0  0  0  0  0  0  0  0  0  0
   51.3360   57.5200   22.2590 O   0  0  0  0  0  0  0  0  0  0  0  0
   51.7070   55.2720   19.0690 C   0  0  0  0  0  0  0  0  0  0  0  0
  1 13  1  0  0  0  0
  2  1  1  0  0  0  0
  3  8  1  0  0  0  0
  3  4  1  0  0  0  0
  4  5  1  0  0  0  0
  5  6  1  0  0  0  0
  6  1  1  6  0  0  0
  7  9  1  6  0  0  0
  7  6  1  0  0  0  0
  8  7  1  0  0  0  0
  9 11  1  0  0  0  0
 10  9  1  0  0  0  0
 12  9  1  0  0  0  0
 13 15  2  0  0  0  0
 13 16  1  0  0  0  0
 14 13  2  0  0  0  0
 16 17  1  0  0  0  0
 17 18  1  0  0  0  0
 19 18  1  0  0  0  0
 19 22  2  0  0  0  0
 20 19  1  0  0  0  0
 21 19  2  0  0  0  0
 23 16  1  0  0  0  0
 23 20  1  0  0  0  0
M  END
>  <MODEL>
2

>  <REMARK>
  Name = ZINC50351640
                            x       y       z     vdW  Elec       q    Type
                         _______ _______ _______ _____ _____    ______ ____

>  <TORSDO>
F 4

>  <minimizedAffinity>
-7.3192880290358699

$$$$
ZINC50351640
 OpenBabel10211214263D

 23 24  0  0  1  0  0  0  0  0999 V2000
   49.4230   50.3820   18.7820 N   0  0  0  0  0  0  0  0  0  0  0  0
   48.6510   50.6970   19.2780 H   0  0  0  0  0  0  0  0  0  0  0  0
   46.3130   49.4390   17.4910 C   0  0  0  0  0  0  0  0  0  0  0  0
   47.0900   48.6800   18.5700 C   0  0  0  0  0  0  0  0  0  0  0  0
   48.4570   48.2680   18.0200 C   0  0  0  0  0  0  0  0  0  0  0  0
   49.2390   49.5180   17.6140 C   0  0  1  0  0  0  0  0  0  0  0  0
   48.4640   50.2780   16.5350 C   0  0  1  0  0  0  0  0  0  0  0  0
   47.0970   50.6880   17.0840 C   0  0  0  0  0  0  0  0  0  0  0  0
   49.2160   51.4770   16.1450 N   0  0  0  0  0  0  0  0  0  0  0  0
   49.2780   52.1070   16.9310 H   0  0  0  0  0  0  0  0  0  0  0  0
   48.7420   51.9380   15.3830 H   0  0  0  0  0  0  0  0  0  0  0  0
   50.1440   51.2130   15.8520 H   0  0  0  0  0  0  0  0  0  0  0  0
   50.9470   50.8210   19.2570 S   0  0  0  0  0  0  0  0  0  0  0  0
   51.6360   51.1060   18.0480 O   0  0  0  0  0  0  0  0  0  0  0  0
   51.3800   49.7660   20.1070 O   0  0  0  0  0  0  0  0  0  0  0  0
   50.7170   52.3420   20.2200 C   0  0  0  0  0  0  0  0  0  0  0  0
   50.6480   53.5330   19.2690 C   0  0  0  0  0  0  0  0  0  0  0  0
   50.1890   54.7810   20.0250 C   0  0  0  0  0  0  0  0  0  0  0  0
   51.4250   55.1870   21.2940 S   0  0  0  0  0  0  0  0  0  0  0  0
   51.5710   53.6170   22.1960 C   0  0  0  0  0  0  0  0  0  0  0  0
   52.6620   55.4580   20.6490 O   0  0  0  0  0  0  0  0  0  0  0  0
   50.8710   56.1610   22.1680 O   0  0  0  0  0  0  0  0  0  0  0  0
   51.8770   52.4980   21.1980 C   0  0  0  0  0  0  0  0  0  0  0  0
  1 13  1  0  0  0  0
  1  2  1  0  0  0  0
  3  4  1  0  0  0  0
  5  4  1  0  0  0  0
  6  5  1  0  0  0  0
  6  1  1  1  0  0  0
  7  9  1  1  0  0  0
  7  8  1  0  0  0  0
  7  6  1  0  0  0  0
  8  3  1  0  0  0  0
  9 10  1  0  0  0  0
 11  9  1  0  0  0  0
 12  9  1  0  0  0  0
 13 15  2  0  0  0  0
 13 16  1  0  0  0  0
 14 13  2  0  0  0  0
 16 23  1  0  0  0  0
 17 18  1  0  0  0  0
 17 16  1  0  0  0  0
 18 19  1  0  0  0  0
 19 22  2  0  0  0  0
 19 20  1  0  0  0  0
 21 19  2  0  0  0  0
 23 20  1  0  0  0  0
M  END
>  <MODEL>
3

>  <REMARK>
  Name = ZINC50351640
                            x       y       z     vdW  Elec       q    Type
                         _______ _______ _______ _____ _____    ______ ____

>  <TORSDO>
F 4

>  <minimizedAffinity>
-7.2320785809149868

$$$$
ZINC50351640
 OpenBabel10211214263D

 23 24  0  0  1  0  0  0  0  0999 V2000
   47.8100   49.9220   16.7940 N   0  0  0  0  0  0  0  0  0  0  0  0
   46.8990   49.9100   16.4600 H   0  0  0  0  0  0  0  0  0  0  0  0
   46.0130   47.0070   17.5000 C   0  0  0  0  0  0  0  0  0  0  0  0
   45.9150   48.3170   18.2840 C   0  0  0  0  0  0  0  0  0  0  0  0
   47.2920   48.6840   18.8400 C   0  0  0  0  0  0  0  0  0  0  0  0
   48.2780   48.8550   17.6820 C   0  0  1  0  0  0  0  0  0  0  0  0
   48.3770   47.5460   16.8970 C   0  0  1  0  0  0  0  0  0  0  0  0
   47.0000   47.1780   16.3430 C   0  0  0  0  0  0  0  0  0  0  0  0
   49.3240   47.7100   15.7870 N   0  0  0  0  0  0  0  0  0  0  0  0
   49.0880   47.0690   15.0450 H   0  0  0  0  0  0  0  0  0  0  0  0
   50.2600   47.5190   16.1120 H   0  0  0  0  0  0  0  0  0  0  0  0
   49.2760   48.6570   15.4410 H   0  0  0  0  0  0  0  0  0  0  0  0
   48.8340   51.1490   16.3610 S   0  0  0  0  0  0  0  0  0  0  0  0
   47.9800   52.1960   15.9210 O   0  0  0  0  0  0  0  0  0  0  0  0
   49.7630   50.5480   15.4690 O   0  0  0  0  0  0  0  0  0  0  0  0
   49.6670   51.6270   17.9010 C   0  0  0  0  0  0  0  0  0  0  0  0
   49.5790   53.1410   18.0710 C   0  0  0  0  0  0  0  0  0  0  0  0
   50.0310   53.5360   19.4780 C   0  0  0  0  0  0  0  0  0  0  0  0
   51.7790   53.0810   19.6840 S   0  0  0  0  0  0  0  0  0  0  0  0
   51.7680   51.3230   19.2250 C   0  0  0  0  0  0  0  0  0  0  0  0
   52.5470   53.7960   18.7250 O   0  0  0  0  0  0  0  0  0  0  0  0
   52.1150   53.1880   21.0600 O   0  0  0  0  0  0  0  0  0  0  0  0
   51.1230   51.1740   17.8460 C   0  0  0  0  0  0  0  0  0  0  0  0
  2  1  1  0  0  0  0
  3  4  1  0  0  0  0
  4  5  1  0  0  0  0
  6  1  1  6  0  0  0
  6  5  1  0  0  0  0
  7  9  1  6  0  0  0
  7  6  1  0  0  0  0
  8  7  1  0  0  0  0
  8  3  1  0  0  0  0
  9 11  1  0  0  0  0
 10  9  1  0  0  0  0
 12  9  1  0  0  0  0
 13  1  1  0  0  0  0
 13 16  1  0  0  0  0
 14 13  2  0  0  0  0
 15 13  2  0  0  0  0
 16 17  1  0  0  0  0
 17 18  1  0  0  0  0
 18 19  1  0  0  0  0
 19 22  2  0  0  0  0
 20 19  1  0  0  0  0
 21 19  2  0  0  0  0
 23 16  1  0  0  0  0
 23 20  1  0  0  0  0
M  END
>  <MODEL>
4

>  <REMARK>
  Name = ZINC50351640
                            x       y       z     vdW  Elec       q    Type
                         _______ _______ _______ _____ _____    ______ ____

>  <TORSDO>
F 4

>  <minimizedAffinity>
-7.0146527983976386

$$$$
ZINC50351640
 OpenBabel10211214263D

 23 24  0  0  1  0  0  0  0  0999 V2000
   49.9180   51.1450   18.2000 N   0  0  0  0  0  0  0  0  0  0  0  0
   49.7850   50.4370   18.8500 H   0  0  0  0  0  0  0  0  0  0  0  0
   52.2990   50.9860   20.7560 C   0  0  0  0  0  0  0  0  0  0  0  0
   50.9500   51.7030   20.8480 C   0  0  0  0  0  0  0  0  0  0  0  0
   50.8650   52.7740   19.7600 C   0  0  0  0  0  0  0  0  0  0  0  0
   50.9990   52.1150   18.3860 C   0  0  1  0  0  0  0  0  0  0  0  0
   52.3480   51.3980   18.2920 C   0  0  1  0  0  0  0  0  0  0  0  0
   52.4320   50.3280   19.3810 C   0  0  0  0  0  0  0  0  0  0  0  0
   52.4770   50.7660   16.9730 N   0  0  0  0  0  0  0  0  0  0  0  0
   52.2440   49.7880   17.0440 H   0  0  0  0  0  0  0  0  0  0  0  0
   53.4260   50.8630   16.6450 H   0  0  0  0  0  0  0  0  0  0  0  0
   51.8490   51.2150   16.3220 H   0  0  0  0  0  0  0  0  0  0  0  0
   48.9210   51.2570   16.8830 S   0  0  0  0  0  0  0  0  0  0  0  0
   49.6830   50.7310   15.8050 O   0  0  0  0  0  0  0  0  0  0  0  0
   48.4860   52.6110   16.8710 O   0  0  0  0  0  0  0  0  0  0  0  0
   47.5260   50.1580   17.2580 C   0  0  0  0  0  0  0  0  0  0  0  0
   47.9690   49.1190   18.2850 C   0  0  0  0  0  0  0  0  0  0  0  0
   46.7520   48.3570   18.8140 C   0  0  0  0  0  0  0  0  0  0  0  0
   45.9830   47.4490   17.4400 S   0  0  0  0  0  0  0  0  0  0  0  0
   45.7300   48.7650   16.2120 C   0  0  0  0  0  0  0  0  0  0  0  0
   46.9290   46.5230   16.9250 O   0  0  0  0  0  0  0  0  0  0  0  0
   44.7120   46.9770   17.8660 O   0  0  0  0  0  0  0  0  0  0  0  0
   47.0610   49.4810   15.9720 C   0  0  0  0  0  0  0  0  0  0  0  0
  1  2  1  0  0  0  0
  3  4  1  0  0  0  0
  5  4  1  0  0  0  0
  6  1  1  1  0  0  0
  6  5  1  0  0  0  0
  7  9  1  6  0  0  0
  7  6  1  0  0  0  0
  7  8  1  0  0  0  0
  8  3  1  0  0  0  0
  9 10  1  0  0  0  0
 11  9  1  0  0  0  0
 12  9  1  0  0  0  0
 13 16  1  0  0  0  0
 13  1  1  0  0  0  0
 14 13  2  0  0  0  0
 15 13  2  0  0  0  0
 16 17  1  0  0  0  0
 17 18  1  0  0  0  0
 19 22  2  0  0  0  0
 19 18  1  0  0  0  0
 20 19  1  0  0  0  0
 21 19  2  0  0  0  0
 23 20  1  0  0  0  0
 23 16  1  0  0  0  0
M  END
>  <MODEL>
5

>  <REMARK>
  Name = ZINC50351640
                            x       y       z     vdW  Elec       q    Type
                         _______ _______ _______ _____ _____    ______ ____

>  <TORSDO>
F 4

>  <minimizedAffinity>
-6.9603307139555506

$$$$
ZINC50351640
 OpenBabel10211214263D

 23 24  0  0  1  0  0  0  0  0999 V2000
   50.7560   50.4280   17.2750 N   0  0  0  0  0  0  0  0  0  0  0  0
   50.9670   49.8390   16.5340 H   0  0  0  0  0  0  0  0  0  0  0  0
   47.9910   49.0280   15.6560 C   0  0  0  0  0  0  0  0  0  0  0  0
   48.7650   50.2590   15.1790 C   0  0  0  0  0  0  0  0  0  0  0  0
   48.7250   51.3390   16.2620 C   0  0  0  0  0  0  0  0  0  0  0  0
   49.3650   50.7990   17.5420 C   0  0  1  0  0  0  0  0  0  0  0  0
   48.5920   49.5690   18.0210 C   0  0  1  0  0  0  0  0  0  0  0  0
   48.6310   48.4900   16.9380 C   0  0  0  0  0  0  0  0  0  0  0  0
   49.2050   49.0520   19.2500 N   0  0  0  0  0  0  0  0  0  0  0  0
   49.8520   49.7340   19.6170 H   0  0  0  0  0  0  0  0  0  0  0  0
   49.7000   48.1960   19.0450 H   0  0  0  0  0  0  0  0  0  0  0  0
   48.4870   48.8680   19.9340 H   0  0  0  0  0  0  0  0  0  0  0  0
   51.9700   51.0130   18.2380 S   0  0  0  0  0  0  0  0  0  0  0  0
   53.0530   51.2550   17.3510 O   0  0  0  0  0  0  0  0  0  0  0  0
   52.0910   50.0610   19.2880 O   0  0  0  0  0  0  0  0  0  0  0  0
   51.3320   52.5820   18.8900 C   0  0  0  0  0  0  0  0  0  0  0  0
   52.4640   53.6040   18.9330 C   0  0  0  0  0  0  0  0  0  0  0  0
   51.9000   54.9970   19.2210 C   0  0  0  0  0  0  0  0  0  0  0  0
   51.1290   54.9910   20.8670 S   0  0  0  0  0  0  0  0  0  0  0  0
   49.9830   53.5870   20.7420 C   0  0  0  0  0  0  0  0  0  0  0  0
   52.1260   54.6810   21.8310 O   0  0  0  0  0  0  0  0  0  0  0  0
   50.3700   56.1840   21.0140 O   0  0  0  0  0  0  0  0  0  0  0  0
   50.7610   52.3510   20.2860 C   0  0  0  0  0  0  0  0  0  0  0  0
  1 13  1  0  0  0  0
  2  1  1  0  0  0  0
  3  8  1  0  0  0  0
  4  3  1  0  0  0  0
  4  5  1  0  0  0  0
  5  6  1  0  0  0  0
  6  1  1  6  0  0  0
  6  7  1  0  0  0  0
  7  9  1  6  0  0  0
  8  7  1  0  0  0  0
  9 10  1  0  0  0  0
  9 12  1  0  0  0  0
 11  9  1  0  0  0  0
 13 16  1  0  0  0  0
 13 15  2  0  0  0  0
 14 13  2  0  0  0  0
 16 17  1  0  0  0  0
 16 23  1  0  0  0  0
 17 18  1  0  0  0  0
 18 19  1  0  0  0  0
 19 22  2  0  0  0  0
 19 21  2  0  0  0  0
 20 19  1  0  0  0  0
 23 20  1  0  0  0  0
M  END
>  <MODEL>
6

>  <REMARK>
  Name = ZINC50351640
                            x       y       z     vdW  Elec       q    Type
                         _______ _______ _______ _____ _____    ______ ____

>  <TORSDO>
F 4

>  <minimizedAffinity>
-6.8573878281281919

$$$$
ZINC50351640
 OpenBabel10211214263D

 23 24  0  0  1  0  0  0  0  0999 V2000
   49.7920   51.3970   17.8710 N   0  0  0  0  0  0  0  0  0  0  0  0
   49.1390   52.0150   17.5080 H   0  0  0  0  0  0  0  0  0  0  0  0
   47.2010   49.9450   16.0270 C   0  0  0  0  0  0  0  0  0  0  0  0
   47.1820   50.1890   17.5380 C   0  0  0  0  0  0  0  0  0  0  0  0
   48.3500   49.4470   18.1900 C   0  0  0  0  0  0  0  0  0  0  0  0
   49.6680   49.9620   17.6080 C   0  0  1  0  0  0  0  0  0  0  0  0
   49.6880   49.7180   16.0970 C   0  0  1  0  0  0  0  0  0  0  0  0
   48.5200   50.4580   15.4450 C   0  0  0  0  0  0  0  0  0  0  0  0
   50.9540   50.2110   15.5380 N   0  0  0  0  0  0  0  0  0  0  0  0
   51.6900   49.5510   15.7370 H   0  0  0  0  0  0  0  0  0  0  0  0
   51.1800   51.1020   15.9540 H   0  0  0  0  0  0  0  0  0  0  0  0
   50.8610   50.3200   14.5400 H   0  0  0  0  0  0  0  0  0  0  0  0
   51.0470   51.9650   18.7900 S   0  0  0  0  0  0  0  0  0  0  0  0
   52.2030   51.7730   17.9850 O   0  0  0  0  0  0  0  0  0  0  0  0
   50.9140   51.2970   20.0390 O   0  0  0  0  0  0  0  0  0  0  0  0
   50.7130   53.7370   18.9930 C   0  0  0  0  0  0  0  0  0  0  0  0
   51.9900   54.4400   19.4450 C   0  0  0  0  0  0  0  0  0  0  0  0
   51.8090   55.9570   19.3630 C   0  0  0  0  0  0  0  0  0  0  0  0
   50.4940   56.4550   20.5140 S   0  0  0  0  0  0  0  0  0  0  0  0
   49.1210   55.3770   20.0090 C   0  0  0  0  0  0  0  0  0  0  0  0
   50.8900   56.1010   21.8320 O   0  0  0  0  0  0  0  0  0  0  0  0
   50.1370   57.8030   20.2370 O   0  0  0  0  0  0  0  0  0  0  0  0
   49.6020   53.9250   20.0200 C   0  0  0  0  0  0  0  0  0  0  0  0
  1 13  1  0  0  0  0
  2  1  1  0  0  0  0
  3  4  1  0  0  0  0
  4  5  1  0  0  0  0
  6  1  1  6  0  0  0
  6  5  1  0  0  0  0
  7  9  1  1  0  0  0
  7  6  1  0  0  0  0
  8  3  1  0  0  0  0
  8  7  1  0  0  0  0
  9 10  1  0  0  0  0
  9 11  1  0  0  0  0
 12  9  1  0  0  0  0
 13 16  1  0  0  0  0
 13 15  2  0  0  0  0
 14 13  2  0  0  0  0
 16 17  1  0  0  0  0
 16 23  1  0  0  0  0
 18 17  1  0  0  0  0
 18 19  1  0  0  0  0
 19 21  2  0  0  0  0
 20 23  1  0  0  0  0
 20 19  1  0  0  0  0
 22 19  2  0  0  0  0
M  END
>  <MODEL>
7

>  <REMARK>
  Name = ZINC50351640
                            x       y       z     vdW  Elec       q    Type
                         _______ _______ _______ _____ _____    ______ ____

>  <TORSDO>
F 4

>  <minimizedAffinity>
-6.6741884697907699

$$$$
ZINC50351640
 OpenBabel10211214263D

 23 24  0  0  1  0  0  0  0  0999 V2000
   51.0130   52.0190   19.6930 N   0  0  0  0  0  0  0  0  0  0  0  0
   50.1670   52.4280   19.4570 H   0  0  0  0  0  0  0  0  0  0  0  0
   50.8010   55.4600   20.2740 C   0  0  0  0  0  0  0  0  0  0  0  0
   51.1510   54.8100   18.9340 C   0  0  0  0  0  0  0  0  0  0  0  0
   52.4010   53.9430   19.0980 C   0  0  0  0  0  0  0  0  0  0  0  0
   52.1320   52.8540   20.1380 C   0  0  1  0  0  0  0  0  0  0  0  0
   51.7810   53.5030   21.4790 C   0  0  1  0  0  0  0  0  0  0  0  0
   50.5330   54.3700   21.3140 C   0  0  0  0  0  0  0  0  0  0  0  0
   51.5240   52.4570   22.4770 N   0  0  0  0  0  0  0  0  0  0  0  0
   50.5320   52.2840   22.5350 H   0  0  0  0  0  0  0  0  0  0  0  0
   51.8650   52.7600   23.3770 H   0  0  0  0  0  0  0  0  0  0  0  0
   51.9980   51.6090   22.2060 H   0  0  0  0  0  0  0  0  0  0  0  0
   51.1950   50.3760   19.5930 S   0  0  0  0  0  0  0  0  0  0  0  0
   50.6950   49.8800   20.8270 O   0  0  0  0  0  0  0  0  0  0  0  0
   52.5560   50.1830   19.2320 O   0  0  0  0  0  0  0  0  0  0  0  0
   50.1100   49.8690   18.2300 C   0  0  0  0  0  0  0  0  0  0  0  0
   49.6620   51.1070   17.4580 C   0  0  0  0  0  0  0  0  0  0  0  0
   48.9730   50.6910   16.1570 C   0  0  0  0  0  0  0  0  0  0  0  0
   47.4730   49.7470   16.5600 S   0  0  0  0  0  0  0  0  0  0  0  0
   48.1240   48.4570   17.6620 C   0  0  0  0  0  0  0  0  0  0  0  0
   46.6010   50.5840   17.3060 O   0  0  0  0  0  0  0  0  0  0  0  0
   46.9950   49.1290   15.3730 O   0  0  0  0  0  0  0  0  0  0  0  0
   48.9070   49.1220   18.7960 C   0  0  0  0  0  0  0  0  0  0  0  0
  2  1  1  0  0  0  0
  3  8  1  0  0  0  0
  4  5  1  0  0  0  0
  4  3  1  0  0  0  0
  5  6  1  0  0  0  0
  6  1  1  6  0  0  0
  6  7  1  0  0  0  0
  7  9  1  6  0  0  0
  8  7  1  0  0  0  0
  9 10  1  0  0  0  0
  9 11  1  0  0  0  0
 12  9  1  0  0  0  0
 13  1  1  0  0  0  0
 13 14  2  0  0  0  0
 15 13  2  0  0  0  0
 16 23  1  0  0  0  0
 16 13  1  0  0  0  0
 17 16  1  0  0  0  0
 18 19  1  0  0  0  0
 18 17  1  0  0  0  0
 19 21  2  0  0  0  0
 19 20  1  0  0  0  0
 20 23  1  0  0  0  0
 22 19  2  0  0  0  0
M  END
>  <MODEL>
8

>  <REMARK>
  Name = ZINC50351640
                            x       y       z     vdW  Elec       q    Type
                         _______ _______ _______ _____ _____    ______ ____

>  <TORSDO>
F 4

>  <minimizedAffinity>
-6.6715301997987631

$$$$
ZINC50351640
 OpenBabel10211214263D

 23 24  0  0  1  0  0  0  0  0999 V2000
   50.2760   52.1860   19.3540 N   0  0  0  0  0  0  0  0  0  0  0  0
   50.0090   52.2990   20.2800 H   0  0  0  0  0  0  0  0  0  0  0  0
   50.1900   55.4890   20.4960 C   0  0  0  0  0  0  0  0  0  0  0  0
   48.9880   54.7070   19.9620 C   0  0  0  0  0  0  0  0  0  0  0  0
   49.2680   54.2560   18.5280 C   0  0  0  0  0  0  0  0  0  0  0  0
   50.5080   53.3600   18.5100 C   0  0  1  0  0  0  0  0  0  0  0  0
   51.7110   54.1410   19.0430 C   0  0  1  0  0  0  0  0  0  0  0  0
   51.4300   54.5930   20.4770 C   0  0  0  0  0  0  0  0  0  0  0  0
   52.9010   53.2810   19.0250 N   0  0  0  0  0  0  0  0  0  0  0  0
   52.9860   52.8420   18.1210 H   0  0  0  0  0  0  0  0  0  0  0  0
   52.8140   52.5710   19.7360 H   0  0  0  0  0  0  0  0  0  0  0  0
   53.7220   53.8390   19.2060 H   0  0  0  0  0  0  0  0  0  0  0  0
   50.4700   50.6640   18.7300 S   0  0  0  0  0  0  0  0  0  0  0  0
   50.7520   49.8430   19.8550 O   0  0  0  0  0  0  0  0  0  0  0  0
   51.4240   50.8190   17.6870 O   0  0  0  0  0  0  0  0  0  0  0  0
   48.8500   50.2360   18.0330 C   0  0  0  0  0  0  0  0  0  0  0  0
   48.3330   48.9680   18.7070 C   0  0  0  0  0  0  0  0  0  0  0  0
   46.8670   48.7390   18.3360 C   0  0  0  0  0  0  0  0  0  0  0  0
   46.7480   48.4710   16.5420 S   0  0  0  0  0  0  0  0  0  0  0  0
   47.6040   49.9340   15.8850 C   0  0  0  0  0  0  0  0  0  0  0  0
   47.5030   47.3150   16.2080 O   0  0  0  0  0  0  0  0  0  0  0  0
   45.3800   48.5390   16.1650 O   0  0  0  0  0  0  0  0  0  0  0  0
   48.9890   50.0290   16.5280 C   0  0  0  0  0  0  0  0  0  0  0  0
  1  2  1  0  0  0  0
  4  3  1  0  0  0  0
  5  4  1  0  0  0  0
  6  5  1  0  0  0  0
  6  7  1  0  0  0  0
  6  1  1  1  0  0  0
  7  9  1  1  0  0  0
  7  8  1  0  0  0  0
  8  3  1  0  0  0  0
  9 12  1  0  0  0  0
  9 11  1  0  0  0  0
 10  9  1  0  0  0  0
 13  1  1  0  0  0  0
 13 14  2  0  0  0  0
 15 13  2  0  0  0  0
 16 17  1  0  0  0  0
 16 13  1  0  0  0  0
 18 17  1  0  0  0  0
 19 18  1  0  0  0  0
 20 23  1  0  0  0  0
 20 19  1  0  0  0  0
 21 19  2  0  0  0  0
 22 19  2  0  0  0  0
 23 16  1  0  0  0  0
M  END
>  <MODEL>
9

>  <REMARK>
  Name = ZINC50351640
                            x       y       z     vdW  Elec       q    Type
                         _______ _______ _______ _____ _____    ______ ____

>  <TORSDO>
F 4

>  <minimizedAffinity>
-6.5901198294799981

$$$$
ZINC31863404
 OpenBabel10211214273D

 24 26  0  0  0  0  0  0  0  0999 V2000
   51.9840   51.7930   20.7210 C   0  0  0  0  0  0  0  0  0  0  0  0
   50.9270   51.9320   19.6570 C   0  0  0  0  0  0  0  0  0  0  0  0
   50.2620   50.7970   19.1750 C   0  0  0  0  0  0  0  0  0  0  0  0
   50.4270   49.4290   19.5450 C   0  0  0  0  0  0  0  0  0  0  0  0
   49.6840   48.5070   18.9550 N   0  0  0  0  0  0  0  0  0  0  0  0
   48.7910   48.8070   18.0290 C   0  0  0  0  0  0  0  0  0  0  0  0
   48.5910   50.0530   17.6430 N   0  0  0  0  0  0  0  0  0  0  0  0
   49.2860   51.0370   18.1770 C   0  0  0  0  0  0  0  0  0  0  0  0
   49.3360   52.7980   17.9690 S   0  0  0  0  0  0  0  0  0  0  0  0
   50.6130   53.1620   19.1620 C   0  0  0  0  0  0  0  0  0  0  0  0
   51.3490   49.0710   20.5080 N   0  0  0  0  0  0  0  0  0  0  0  0
   51.1460   49.2840   21.5680 H   0  0  0  0  0  0  0  0  0  0  0  0
   52.5120   48.4560   20.1440 N   0  0  0  0  0  0  0  0  0  0  0  0
   52.9430   47.9420   21.0150 H   0  0  0  0  0  0  0  0  0  0  0  0
   53.2240   49.2090   19.7730 H   0  0  0  0  0  0  0  0  0  0  0  0
   51.1820   54.4640   19.5250 C   0  0  0  0  0  0  0  0  0  0  0  0
   52.0480   54.9640   18.8330 O   0  0  0  0  0  0  0  0  0  0  0  0
   50.7440   55.1070   20.6260 O   0  0  0  0  0  0  0  0  0  0  0  0
   49.9780   56.3240   20.4200 C   0  0  0  0  0  0  0  0  0  0  0  0
   48.5880   55.9680   19.8890 C   0  0  0  0  0  0  0  0  0  0  0  0
   47.7820   57.2500   19.6710 C   0  0  0  0  0  0  0  0  0  0  0  0
   47.6450   57.9980   20.9980 C   0  0  0  0  0  0  0  0  0  0  0  0
   49.0350   58.3530   21.5300 C   0  0  0  0  0  0  0  0  0  0  0  0
   49.8420   57.0720   21.7470 C   0  0  0  0  0  0  0  0  0  0  0  0
  2  1  1  0  0  0  0
  3  4  1  0  0  0  0
  3  2  1  0  0  0  0
  4 11  1  0  0  0  0
  5  4  2  0  0  0  0
  6  5  1  0  0  0  0
  7  6  2  0  0  0  0
  7  8  1  0  0  0  0
  8  3  2  0  0  0  0
  9  8  1  0  0  0  0
  9 10  1  0  0  0  0
 10 16  1  0  0  0  0
 10  2  2  0  0  0  0
 11 12  1  0  0  0  0
 13 11  1  0  0  0  0
 13 14  1  0  0  0  0
 15 13  1  0  0  0  0
 16 18  1  0  0  0  0
 17 16  2  0  0  0  0
 19 18  1  0  0  0  0
 19 24  1  0  0  0  0
 20 19  1  0  0  0  0
 21 20  1  0  0  0  0
 21 22  1  0  0  0  0
 22 23  1  0  0  0  0
 23 24  1  0  0  0  0
M  END
>  <MODEL>
1

>  <REMARK>
  Name = ZINC31863404
                            x       y       z     vdW  Elec       q    Type
                         _______ _______ _______ _____ _____    ______ ____

>  <TORSDO>
F 5

>  <minimizedAffinity>
-8.308510497383562

$$$$
ZINC31863404
 OpenBabel10211214273D

 24 26  0  0  0  0  0  0  0  0999 V2000
   51.4830   53.2870   22.6770 C   0  0  0  0  0  0  0  0  0  0  0  0
   51.8580   53.7030   21.2780 C   0  0  0  0  0  0  0  0  0  0  0  0
   52.0050   52.7390   20.2730 C   0  0  0  0  0  0  0  0  0  0  0  0
   51.8510   51.3220   20.3520 C   0  0  0  0  0  0  0  0  0  0  0  0
   52.0390   50.5910   19.2660 N   0  0  0  0  0  0  0  0  0  0  0  0
   52.3680   51.1260   18.1040 C   0  0  0  0  0  0  0  0  0  0  0  0
   52.5250   52.4300   17.9660 N   0  0  0  0  0  0  0  0  0  0  0  0
   52.3570   53.2350   18.9950 C   0  0  0  0  0  0  0  0  0  0  0  0
   52.4570   54.9880   19.2490 S   0  0  0  0  0  0  0  0  0  0  0  0
   52.0520   55.0200   20.9870 C   0  0  0  0  0  0  0  0  0  0  0  0
   51.5080   50.7210   21.5470 N   0  0  0  0  0  0  0  0  0  0  0  0
   51.7030   51.2390   22.4980 H   0  0  0  0  0  0  0  0  0  0  0  0
   50.9280   49.4850   21.5480 N   0  0  0  0  0  0  0  0  0  0  0  0
   50.0970   49.4690   20.8280 H   0  0  0  0  0  0  0  0  0  0  0  0
   50.5460   49.2610   22.5550 H   0  0  0  0  0  0  0  0  0  0  0  0
   51.9500   56.1780   21.8810 C   0  0  0  0  0  0  0  0  0  0  0  0
   52.9560   56.7490   22.2540 O   0  0  0  0  0  0  0  0  0  0  0  0
   50.7390   56.6080   22.2900 O   0  0  0  0  0  0  0  0  0  0  0  0
   49.8560   57.1560   21.2760 C   0  0  0  0  0  0  0  0  0  0  0  0
   49.0150   56.0310   20.6680 C   0  0  0  0  0  0  0  0  0  0  0  0
   48.0850   56.6100   19.6000 C   0  0  0  0  0  0  0  0  0  0  0  0
   47.1620   57.6500   20.2360 C   0  0  0  0  0  0  0  0  0  0  0  0
   48.0030   58.7750   20.8440 C   0  0  0  0  0  0  0  0  0  0  0  0
   48.9330   58.1970   21.9120 C   0  0  0  0  0  0  0  0  0  0  0  0
  2  1  1  0  0  0  0
  3  4  1  0  0  0  0
  3  2  1  0  0  0  0
  4 11  1  0  0  0  0
  5  4  2  0  0  0  0
  6  5  1  0  0  0  0
  7  6  2  0  0  0  0
  7  8  1  0  0  0  0
  8  9  1  0  0  0  0
  8  3  2  0  0  0  0
  9 10  1  0  0  0  0
 10  2  2  0  0  0  0
 10 16  1  0  0  0  0
 11 13  1  0  0  0  0
 11 12  1  0  0  0  0
 13 15  1  0  0  0  0
 14 13  1  0  0  0  0
 16 17  2  0  0  0  0
 16 18  1  0  0  0  0
 19 24  1  0  0  0  0
 19 18  1  0  0  0  0
 20 19  1  0  0  0  0
 21 22  1  0  0  0  0
 21 20  1  0  0  0  0
 22 23  1  0  0  0  0
 23 24  1  0  0  0  0
M  END
>  <MODEL>
2

>  <REMARK>
  Name = ZINC31863404
                            x       y       z     vdW  Elec       q    Type
                         _______ _______ _______ _____ _____    ______ ____

>  <TORSDO>
F 5

>  <minimizedAffinity>
-8.248744265104337

$$$$
ZINC31863404
 OpenBabel10211214273D

 24 26  0  0  0  0  0  0  0  0999 V2000
   51.0350   51.0290   18.4730 C   0  0  0  0  0  0  0  0  0  0  0  0
   50.3220   52.3220   18.7710 C   0  0  0  0  0  0  0  0  0  0  0  0
   50.7550   53.1370   19.8250 C   0  0  0  0  0  0  0  0  0  0  0  0
   51.8360   52.9370   20.7350 C   0  0  0  0  0  0  0  0  0  0  0  0
   52.0710   53.8450   21.6670 N   0  0  0  0  0  0  0  0  0  0  0  0
   51.3380   54.9380   21.7880 C   0  0  0  0  0  0  0  0  0  0  0  0
   50.3250   55.1800   20.9780 N   0  0  0  0  0  0  0  0  0  0  0  0
   50.0180   54.3300   20.0200 C   0  0  0  0  0  0  0  0  0  0  0  0
   48.7860   54.2640   18.7450 S   0  0  0  0  0  0  0  0  0  0  0  0
   49.2550   52.7040   18.0140 C   0  0  0  0  0  0  0  0  0  0  0  0
   52.6270   51.8090   20.6440 N   0  0  0  0  0  0  0  0  0  0  0  0
   53.1880   51.6050   19.7190 H   0  0  0  0  0  0  0  0  0  0  0  0
   52.7120   50.9480   21.7000 N   0  0  0  0  0  0  0  0  0  0  0  0
   52.7920   49.9170   21.3260 H   0  0  0  0  0  0  0  0  0  0  0  0
   51.8110   51.0440   22.3240 H   0  0  0  0  0  0  0  0  0  0  0  0
   48.6460   52.0070   16.8760 C   0  0  0  0  0  0  0  0  0  0  0  0
   48.1990   52.6440   15.9420 O   0  0  0  0  0  0  0  0  0  0  0  0
   48.5810   50.6600   16.8680 O   0  0  0  0  0  0  0  0  0  0  0  0
   47.4830   50.0480   17.5940 C   0  0  0  0  0  0  0  0  0  0  0  0
   46.4020   49.6040   16.6060 C   0  0  0  0  0  0  0  0  0  0  0  0
   45.2450   48.9590   17.3720 C   0  0  0  0  0  0  0  0  0  0  0  0
   45.7590   47.7450   18.1470 C   0  0  0  0  0  0  0  0  0  0  0  0
   46.8390   48.1890   19.1340 C   0  0  0  0  0  0  0  0  0  0  0  0
   47.9970   48.8340   18.3690 C   0  0  0  0  0  0  0  0  0  0  0  0
  1  2  1  0  0  0  0
  2  3  1  0  0  0  0
  3  8  2  0  0  0  0
  3  4  1  0  0  0  0
  4  5  2  0  0  0  0
  5  6  1  0  0  0  0
  7  6  2  0  0  0  0
  8  7  1  0  0  0  0
  9  8  1  0  0  0  0
 10  9  1  0  0  0  0
 10  2  2  0  0  0  0
 11  4  1  0  0  0  0
 11 13  1  0  0  0  0
 12 11  1  0  0  0  0
 13 15  1  0  0  0  0
 14 13  1  0  0  0  0
 16 10  1  0  0  0  0
 17 16  2  0  0  0  0
 18 16  1  0  0  0  0
 18 19  1  0  0  0  0
 19 24  1  0  0  0  0
 20 21  1  0  0  0  0
 20 19  1  0  0  0  0
 21 22  1  0  0  0  0
 22 23  1  0  0  0  0
 24 23  1  0  0  0  0
M  END
>  <MODEL>
3

>  <REMARK>
  Name = ZINC31863404
                            x       y       z     vdW  Elec       q    Type
                         _______ _______ _______ _____ _____    ______ ____

>  <TORSDO>
F 5

>  <minimizedAffinity>
-8.1455195923390811

$$$$
ZINC31863404
 OpenBabel10211214273D

 24 26  0  0  0  0  0  0  0  0999 V2000
   52.5840   54.0040   18.8700 C   0  0  0  0  0  0  0  0  0  0  0  0
   51.9600   53.2640   20.0240 C   0  0  0  0  0  0  0  0  0  0  0  0
   51.6930   51.8930   19.9180 C   0  0  0  0  0  0  0  0  0  0  0  0
   51.9290   51.0100   18.8220 C   0  0  0  0  0  0  0  0  0  0  0  0
   51.5970   49.7350   18.9390 N   0  0  0  0  0  0  0  0  0  0  0  0
   51.0510   49.2450   20.0380 C   0  0  0  0  0  0  0  0  0  0  0  0
   50.8090   50.0100   21.0850 N   0  0  0  0  0  0  0  0  0  0  0  0
   51.1070   51.2930   21.0590 C   0  0  0  0  0  0  0  0  0  0  0  0
   50.9650   52.6410   22.2040 S   0  0  0  0  0  0  0  0  0  0  0  0
   51.6540   53.9270   21.1750 C   0  0  0  0  0  0  0  0  0  0  0  0
   52.4970   51.4800   17.6550 N   0  0  0  0  0  0  0  0  0  0  0  0
   52.6790   52.5570   17.5270 H   0  0  0  0  0  0  0  0  0  0  0  0
   52.8300   50.6070   16.6590 N   0  0  0  0  0  0  0  0  0  0  0  0
   52.1930   49.7140   16.7250 H   0  0  0  0  0  0  0  0  0  0  0  0
   53.8850   50.3130   16.7680 H   0  0  0  0  0  0  0  0  0  0  0  0
   51.8480   55.3450   21.4910 C   0  0  0  0  0  0  0  0  0  0  0  0
   52.5150   55.6680   22.4550 O   0  0  0  0  0  0  0  0  0  0  0  0
   51.2850   56.2920   20.7130 O   0  0  0  0  0  0  0  0  0  0  0  0
   49.8830   56.5910   20.9480 C   0  0  0  0  0  0  0  0  0  0  0  0
   49.7490   58.0150   21.4930 C   0  0  0  0  0  0  0  0  0  0  0  0
   48.2730   58.3290   21.7400 C   0  0  0  0  0  0  0  0  0  0  0  0
   47.4990   58.2120   20.4260 C   0  0  0  0  0  0  0  0  0  0  0  0
   47.6330   56.7880   19.8810 C   0  0  0  0  0  0  0  0  0  0  0  0
   49.1100   56.4740   19.6330 C   0  0  0  0  0  0  0  0  0  0  0  0
  1  2  1  0  0  0  0
  2 10  2  0  0  0  0
  3  2  1  0  0  0  0
  3  8  2  0  0  0  0
  4  5  2  0  0  0  0
  4  3  1  0  0  0  0
  5  6  1  0  0  0  0
  6  7  2  0  0  0  0
  8  7  1  0  0  0  0
  8  9  1  0  0  0  0
 10 16  1  0  0  0  0
 10  9  1  0  0  0  0
 11  4  1  0  0  0  0
 12 11  1  0  0  0  0
 13 14  1  0  0  0  0
 13 15  1  0  0  0  0
 13 11  1  0  0  0  0
 16 17  2  0  0  0  0
 18 19  1  0  0  0  0
 18 16  1  0  0  0  0
 19 20  1  0  0  0  0
 20 21  1  0  0  0  0
 22 21  1  0  0  0  0
 23 22  1  0  0  0  0
 24 23  1  0  0  0  0
 24 19  1  0  0  0  0
M  END
>  <MODEL>
4

>  <REMARK>
  Name = ZINC31863404
                            x       y       z     vdW  Elec       q    Type
                         _______ _______ _______ _____ _____    ______ ____

>  <TORSDO>
F 5

>  <minimizedAffinity>
-7.8052151687880249

$$$$
ZINC31863404
 OpenBabel10211214273D

 24 26  0  0  0  0  0  0  0  0999 V2000
   50.3510   48.7690   19.8350 C   0  0  0  0  0  0  0  0  0  0  0  0
   50.0250   50.0040   19.0370 C   0  0  0  0  0  0  0  0  0  0  0  0
   50.8630   51.1250   19.1030 C   0  0  0  0  0  0  0  0  0  0  0  0
   52.0610   51.3130   19.8540 C   0  0  0  0  0  0  0  0  0  0  0  0
   52.7030   52.4660   19.7670 N   0  0  0  0  0  0  0  0  0  0  0  0
   52.2720   53.4570   19.0070 C   0  0  0  0  0  0  0  0  0  0  0  0
   51.1710   53.3450   18.2880 N   0  0  0  0  0  0  0  0  0  0  0  0
   50.4680   52.2320   18.3130 C   0  0  0  0  0  0  0  0  0  0  0  0
   48.9820   51.6650   17.5270 S   0  0  0  0  0  0  0  0  0  0  0  0
   48.9160   50.0330   18.2460 C   0  0  0  0  0  0  0  0  0  0  0  0
   52.5470   50.3030   20.6610 N   0  0  0  0  0  0  0  0  0  0  0  0
   52.1530   50.1770   21.6800 H   0  0  0  0  0  0  0  0  0  0  0  0
   53.5170   49.4630   20.1940 N   0  0  0  0  0  0  0  0  0  0  0  0
   54.2140   49.2190   21.0090 H   0  0  0  0  0  0  0  0  0  0  0  0
   54.0660   49.9560   19.3770 H   0  0  0  0  0  0  0  0  0  0  0  0
   47.9170   48.9810   18.0350 C   0  0  0  0  0  0  0  0  0  0  0  0
   47.0480   48.7910   18.8650 O   0  0  0  0  0  0  0  0  0  0  0  0
   47.9630   48.2210   16.9210 O   0  0  0  0  0  0  0  0  0  0  0  0
   46.7050   47.9720   16.2400 C   0  0  0  0  0  0  0  0  0  0  0  0
   46.8400   48.3500   14.7640 C   0  0  0  0  0  0  0  0  0  0  0  0
   45.5140   48.0880   14.0470 C   0  0  0  0  0  0  0  0  0  0  0  0
   45.1560   46.6050   14.1630 C   0  0  0  0  0  0  0  0  0  0  0  0
   45.0210   46.2270   15.6400 C   0  0  0  0  0  0  0  0  0  0  0  0
   46.3470   46.4900   16.3570 C   0  0  0  0  0  0  0  0  0  0  0  0
  2  3  1  0  0  0  0
  2  1  1  0  0  0  0
  3  4  2  0  0  0  0
  4 11  1  0  0  0  0
  5  4  1  0  0  0  0
  6  5  2  0  0  0  0
  7  8  2  0  0  0  0
  7  6  1  0  0  0  0
  8  3  1  0  0  0  0
  9 10  1  0  0  0  0
  9  8  1  0  0  0  0
 10  2  2  0  0  0  0
 11 12  1  0  0  0  0
 13 11  1  0  0  0  0
 13 14  1  0  0  0  0
 15 13  1  0  0  0  0
 16 10  1  0  0  0  0
 16 17  2  0  0  0  0
 18 16  1  0  0  0  0
 19 24  1  0  0  0  0
 19 18  1  0  0  0  0
 20 19  1  0  0  0  0
 21 22  1  0  0  0  0
 21 20  1  0  0  0  0
 22 23  1  0  0  0  0
 23 24  1  0  0  0  0
M  END
>  <MODEL>
5

>  <REMARK>
  Name = ZINC31863404
                            x       y       z     vdW  Elec       q    Type
                         _______ _______ _______ _____ _____    ______ ____

>  <TORSDO>
F 5

>  <minimizedAffinity>
-7.7507173627957213

$$$$
ZINC31863404
 OpenBabel10211214273D

 24 26  0  0  0  0  0  0  0  0999 V2000
   51.8240   54.2770   21.2290 C   0  0  0  0  0  0  0  0  0  0  0  0
   50.5690   54.6680   20.4930 C   0  0  0  0  0  0  0  0  0  0  0  0
   49.9000   55.8530   20.8250 C   0  0  0  0  0  0  0  0  0  0  0  0
   50.2270   56.8270   21.8140 C   0  0  0  0  0  0  0  0  0  0  0  0
   49.4470   57.8860   21.9600 N   0  0  0  0  0  0  0  0  0  0  0  0
   48.3690   58.0750   21.2190 C   0  0  0  0  0  0  0  0  0  0  0  0
   48.0140   57.2110   20.2870 N   0  0  0  0  0  0  0  0  0  0  0  0
   48.7320   56.1280   20.0720 C   0  0  0  0  0  0  0  0  0  0  0  0
   48.6290   54.7520   18.9570 S   0  0  0  0  0  0  0  0  0  0  0  0
   50.0820   53.8700   19.5020 C   0  0  0  0  0  0  0  0  0  0  0  0
   51.3440   56.6690   22.6100 N   0  0  0  0  0  0  0  0  0  0  0  0
   51.3440   55.9150   23.4120 H   0  0  0  0  0  0  0  0  0  0  0  0
   52.4460   57.4480   22.4030 N   0  0  0  0  0  0  0  0  0  0  0  0
   53.2880   57.0550   22.9900 H   0  0  0  0  0  0  0  0  0  0  0  0
   52.2280   58.4800   22.7190 H   0  0  0  0  0  0  0  0  0  0  0  0
   50.6220   52.6010   19.0030 C   0  0  0  0  0  0  0  0  0  0  0  0
   51.5600   52.6010   18.2290 O   0  0  0  0  0  0  0  0  0  0  0  0
   50.0780   51.4330   19.4020 O   0  0  0  0  0  0  0  0  0  0  0  0
   49.5880   50.5450   18.3630 C   0  0  0  0  0  0  0  0  0  0  0  0
   49.1860   49.2050   18.9840 C   0  0  0  0  0  0  0  0  0  0  0  0
   48.6700   48.2700   17.8890 C   0  0  0  0  0  0  0  0  0  0  0  0
   47.4550   48.9020   17.2080 C   0  0  0  0  0  0  0  0  0  0  0  0
   47.8570   50.2410   16.5870 C   0  0  0  0  0  0  0  0  0  0  0  0
   48.3730   51.1770   17.6820 C   0  0  0  0  0  0  0  0  0  0  0  0
  2  3  1  0  0  0  0
  2  1  1  0  0  0  0
  3  4  2  0  0  0  0
  4  5  1  0  0  0  0
  4 11  1  0  0  0  0
  6  5  2  0  0  0  0
  7  6  1  0  0  0  0
  8  7  2  0  0  0  0
  8  3  1  0  0  0  0
  9 10  1  0  0  0  0
  9  8  1  0  0  0  0
 10  2  2  0  0  0  0
 11 12  1  0  0  0  0
 13 11  1  0  0  0  0
 13 15  1  0  0  0  0
 13 14  1  0  0  0  0
 16 18  1  0  0  0  0
 16 10  1  0  0  0  0
 17 16  2  0  0  0  0
 19 20  1  0  0  0  0
 19 18  1  0  0  0  0
 21 20  1  0  0  0  0
 22 21  1  0  0  0  0
 23 22  1  0  0  0  0
 23 24  1  0  0  0  0
 24 19  1  0  0  0  0
M  END
>  <MODEL>
6

>  <REMARK>
  Name = ZINC31863404
                            x       y       z     vdW  Elec       q    Type
                         _______ _______ _______ _____ _____    ______ ____

>  <TORSDO>
F 5

>  <minimizedAffinity>
-7.6876201233089345

$$$$
ZINC31863404
 OpenBabel10211214273D

 24 26  0  0  0  0  0  0  0  0999 V2000
   49.4280   53.6270   18.5760 C   0  0  0  0  0  0  0  0  0  0  0  0
   50.3170   53.2430   19.7300 C   0  0  0  0  0  0  0  0  0  0  0  0
   50.6690   54.1970   20.6930 C   0  0  0  0  0  0  0  0  0  0  0  0
   50.3040   55.5740   20.7760 C   0  0  0  0  0  0  0  0  0  0  0  0
   50.7540   56.3010   21.7850 N   0  0  0  0  0  0  0  0  0  0  0  0
   51.5350   55.7980   22.7240 C   0  0  0  0  0  0  0  0  0  0  0  0
   51.9070   54.5320   22.7040 N   0  0  0  0  0  0  0  0  0  0  0  0
   51.5060   53.7330   21.7370 C   0  0  0  0  0  0  0  0  0  0  0  0
   51.7510   52.0220   21.3370 S   0  0  0  0  0  0  0  0  0  0  0  0
   50.7780   51.9660   19.8410 C   0  0  0  0  0  0  0  0  0  0  0  0
   49.4900   56.1410   19.8150 N   0  0  0  0  0  0  0  0  0  0  0  0
   49.8080   56.1510   18.7620 H   0  0  0  0  0  0  0  0  0  0  0  0
   48.2920   56.6900   20.1730 N   0  0  0  0  0  0  0  0  0  0  0  0
   47.7310   56.9650   19.2690 H   0  0  0  0  0  0  0  0  0  0  0  0
   48.4690   57.5880   20.7830 H   0  0  0  0  0  0  0  0  0  0  0  0
   50.5330   50.8260   18.9520 C   0  0  0  0  0  0  0  0  0  0  0  0
   51.1120   50.7500   17.8850 O   0  0  0  0  0  0  0  0  0  0  0  0
   49.6630   49.8620   19.3180 O   0  0  0  0  0  0  0  0  0  0  0  0
   48.6840   49.4470   18.3290 C   0  0  0  0  0  0  0  0  0  0  0  0
   47.5960   48.6120   19.0070 C   0  0  0  0  0  0  0  0  0  0  0  0
   46.5640   48.1750   17.9650 C   0  0  0  0  0  0  0  0  0  0  0  0
   45.9320   49.4120   17.3240 C   0  0  0  0  0  0  0  0  0  0  0  0
   47.0200   50.2480   16.6460 C   0  0  0  0  0  0  0  0  0  0  0  0
   48.0520   50.6840   17.6880 C   0  0  0  0  0  0  0  0  0  0  0  0
  1  2  1  0  0  0  0
  2 10  2  0  0  0  0
  2  3  1  0  0  0  0
  3  4  2  0  0  0  0
  3  8  1  0  0  0  0
  4  5  1  0  0  0  0
  5  6  2  0  0  0  0
  7  6  1  0  0  0  0
  8  7  2  0  0  0  0
  9  8  1  0  0  0  0
 10  9  1  0  0  0  0
 11 13  1  0  0  0  0
 11  4  1  0  0  0  0
 12 11  1  0  0  0  0
 13 15  1  0  0  0  0
 14 13  1  0  0  0  0
 16 18  1  0  0  0  0
 16 10  1  0  0  0  0
 17 16  2  0  0  0  0
 19 20  1  0  0  0  0
 19 18  1  0  0  0  0
 21 20  1  0  0  0  0
 22 21  1  0  0  0  0
 23 22  1  0  0  0  0
 23 24  1  0  0  0  0
 24 19  1  0  0  0  0
M  END
>  <MODEL>
7

>  <REMARK>
  Name = ZINC31863404
                            x       y       z     vdW  Elec       q    Type
                         _______ _______ _______ _____ _____    ______ ____

>  <TORSDO>
F 5

>  <minimizedAffinity>
-7.6629970680899975

$$$$
ZINC31863404
 OpenBabel10211214273D

 24 26  0  0  0  0  0  0  0  0999 V2000
   50.0410   57.9430   21.6540 C   0  0  0  0  0  0  0  0  0  0  0  0
   49.6810   56.6620   20.9480 C   0  0  0  0  0  0  0  0  0  0  0  0
   50.3620   55.4770   21.2520 C   0  0  0  0  0  0  0  0  0  0  0  0
   51.4190   55.2570   22.1850 C   0  0  0  0  0  0  0  0  0  0  0  0
   51.9230   54.0410   22.3150 N   0  0  0  0  0  0  0  0  0  0  0  0
   51.4830   53.0160   21.6080 C   0  0  0  0  0  0  0  0  0  0  0  0
   50.5070   53.1540   20.7300 N   0  0  0  0  0  0  0  0  0  0  0  0
   49.9460   54.3290   20.5340 C   0  0  0  0  0  0  0  0  0  0  0  0
   48.6460   54.9450   19.4960 S   0  0  0  0  0  0  0  0  0  0  0  0
   48.6890   56.6530   20.0140 C   0  0  0  0  0  0  0  0  0  0  0  0
   51.9100   56.3010   22.9440 N   0  0  0  0  0  0  0  0  0  0  0  0
   51.3020   56.7220   23.7580 H   0  0  0  0  0  0  0  0  0  0  0  0
   53.1500   56.8110   22.6830 N   0  0  0  0  0  0  0  0  0  0  0  0
   53.9150   56.1610   23.1310 H   0  0  0  0  0  0  0  0  0  0  0  0
   53.2280   57.8210   23.1140 H   0  0  0  0  0  0  0  0  0  0  0  0
   47.8600   57.7700   19.5510 C   0  0  0  0  0  0  0  0  0  0  0  0
   47.0120   58.2420   20.2830 O   0  0  0  0  0  0  0  0  0  0  0  0
   48.0370   58.2730   18.3120 O   0  0  0  0  0  0  0  0  0  0  0  0
   47.2380   57.6970   17.2450 C   0  0  0  0  0  0  0  0  0  0  0  0
   46.4240   58.7990   16.5640 C   0  0  0  0  0  0  0  0  0  0  0  0
   45.5810   58.1920   15.4410 C   0  0  0  0  0  0  0  0  0  0  0  0
   46.5010   57.5290   14.4150 C   0  0  0  0  0  0  0  0  0  0  0  0
   47.3150   56.4260   15.0960 C   0  0  0  0  0  0  0  0  0  0  0  0
   48.1580   57.0340   16.2190 C   0  0  0  0  0  0  0  0  0  0  0  0
  2  3  1  0  0  0  0
  2  1  1  0  0  0  0
  3  4  2  0  0  0  0
  4  5  1  0  0  0  0
  4 11  1  0  0  0  0
  6  5  2  0  0  0  0
  7  6  1  0  0  0  0
  8  7  2  0  0  0  0
  8  3  1  0  0  0  0
  9 10  1  0  0  0  0
  9  8  1  0  0  0  0
 10  2  2  0  0  0  0
 11 12  1  0  0  0  0
 13 11  1  0  0  0  0
 13 15  1  0  0  0  0
 13 14  1  0  0  0  0
 16 10  1  0  0  0  0
 16 17  2  0  0  0  0
 18 16  1  0  0  0  0
 19 18  1  0  0  0  0
 20 19  1  0  0  0  0
 21 20  1  0  0  0  0
 22 23  1  0  0  0  0
 22 21  1  0  0  0  0
 23 24  1  0  0  0  0
 24 19  1  0  0  0  0
M  END
>  <MODEL>
8

>  <REMARK>
  Name = ZINC31863404
                            x       y       z     vdW  Elec       q    Type
                         _______ _______ _______ _____ _____    ______ ____

>  <TORSDO>
F 5

>  <minimizedAffinity>
-7.5599288808892275

$$$$
ZINC31863404
 OpenBabel10211214273D

 24 26  0  0  0  0  0  0  0  0999 V2000
   48.6220   52.8330   17.5880 C   0  0  0  0  0  0  0  0  0  0  0  0
   49.7680   52.1970   18.3300 C   0  0  0  0  0  0  0  0  0  0  0  0
   50.3090   52.8240   19.4600 C   0  0  0  0  0  0  0  0  0  0  0  0
   49.9340   54.0560   20.0740 C   0  0  0  0  0  0  0  0  0  0  0  0
   50.5880   54.4670   21.1480 N   0  0  0  0  0  0  0  0  0  0  0  0
   51.5820   53.7750   21.6760 C   0  0  0  0  0  0  0  0  0  0  0  0
   51.9760   52.6290   21.1550 N   0  0  0  0  0  0  0  0  0  0  0  0
   51.3820   52.1420   20.0850 C   0  0  0  0  0  0  0  0  0  0  0  0
   51.5750   50.6850   19.0920 S   0  0  0  0  0  0  0  0  0  0  0  0
   50.2800   51.0070   17.9060 C   0  0  0  0  0  0  0  0  0  0  0  0
   48.9010   54.8110   19.5550 N   0  0  0  0  0  0  0  0  0  0  0  0
   47.9750   54.3190   19.2220 H   0  0  0  0  0  0  0  0  0  0  0  0
   49.0300   56.1660   19.4540 N   0  0  0  0  0  0  0  0  0  0  0  0
   49.2720   56.5860   20.4410 H   0  0  0  0  0  0  0  0  0  0  0  0
   48.0830   56.5980   19.0940 H   0  0  0  0  0  0  0  0  0  0  0  0
   49.8660   50.1910   16.7600 C   0  0  0  0  0  0  0  0  0  0  0  0
   50.2470   50.4760   15.6410 O   0  0  0  0  0  0  0  0  0  0  0  0
   49.0610   49.1250   16.9480 O   0  0  0  0  0  0  0  0  0  0  0  0
   47.6620   49.2850   16.5940 C   0  0  0  0  0  0  0  0  0  0  0  0
   47.2660   48.2110   15.5780 C   0  0  0  0  0  0  0  0  0  0  0  0
   45.7920   48.3790   15.2050 C   0  0  0  0  0  0  0  0  0  0  0  0
   44.9290   48.2380   16.4600 C   0  0  0  0  0  0  0  0  0  0  0  0
   45.3240   49.3120   17.4750 C   0  0  0  0  0  0  0  0  0  0  0  0
   46.7990   49.1430   17.8480 C   0  0  0  0  0  0  0  0  0  0  0  0
  1  2  1  0  0  0  0
  2  3  1  0  0  0  0
  3  4  2  0  0  0  0
  3  8  1  0  0  0  0
  4  5  1  0  0  0  0
  5  6  2  0  0  0  0
  7  6  1  0  0  0  0
  8  7  2  0  0  0  0
  9  8  1  0  0  0  0
 10  2  2  0  0  0  0
 10  9  1  0  0  0  0
 11  4  1  0  0  0  0
 12 11  1  0  0  0  0
 13 11  1  0  0  0  0
 13 14  1  0  0  0  0
 15 13  1  0  0  0  0
 16 18  1  0  0  0  0
 16 10  1  0  0  0  0
 17 16  2  0  0  0  0
 19 18  1  0  0  0  0
 19 24  1  0  0  0  0
 20 19  1  0  0  0  0
 21 20  1  0  0  0  0
 21 22  1  0  0  0  0
 22 23  1  0  0  0  0
 23 24  1  0  0  0  0
M  END
>  <MODEL>
9

>  <REMARK>
  Name = ZINC31863404
                            x       y       z     vdW  Elec       q    Type
                         _______ _______ _______ _____ _____    ______ ____

>  <TORSDO>
F 5

>  <minimizedAffinity>
-7.3731948791335187

$$$$
ZINC66698987
 OpenBabel10211214283D

 24 24  0  0  1  0  0  0  0  0999 V2000
   49.4280   52.9250   17.7830 N   0  0  0  0  0  0  0  0  0  0  0  0
   49.5160   53.8900   17.7320 H   0  0  0  0  0  0  0  0  0  0  0  0
   48.4670   52.2980   17.0760 C   0  0  0  0  0  0  0  0  0  0  0  0
   48.3440   50.9580   17.1460 N   0  0  0  0  0  0  0  0  0  0  0  0
   48.9490   50.4440   17.7050 H   0  0  0  0  0  0  0  0  0  0  0  0
   47.7100   52.9420   16.3750 O   0  0  0  0  0  0  0  0  0  0  0  0
   47.3000   50.2760   16.3780 C   0  0  2  0  0  0  0  0  0  0  0  0
   46.3280   49.5880   17.3380 C   0  0  0  0  0  0  0  0  0  0  0  0
   47.0860   48.5650   18.1870 C   0  0  1  0  0  0  0  0  0  0  0  0
   46.1140   47.8780   19.1470 C   0  0  0  0  0  0  0  0  0  0  0  0
   47.7260   47.5190   17.2730 C   0  0  0  0  0  0  0  0  0  0  0  0
   48.6990   48.2070   16.3130 C   0  0  0  0  0  0  0  0  0  0  0  0
   47.9400   49.2290   15.4640 C   0  0  2  0  0  0  0  0  0  0  0  0
   48.9130   49.9170   14.5030 C   0  0  0  0  0  0  0  0  0  0  0  0
   48.3890   49.7910   13.0710 C   0  0  0  0  0  0  0  0  0  0  0  0
   50.2860   49.2510   14.6060 C   0  0  0  0  0  0  0  0  0  0  0  0
   51.5450   52.6380   18.8310 C   0  0  0  0  0  0  0  0  0  0  0  0
   50.3000   52.1840   18.5910 N   0  0  0  0  0  0  0  0  0  0  0  0
   50.0060   51.3440   18.9780 H   0  0  0  0  0  0  0  0  0  0  0  0
   51.9120   53.6880   18.3480 O   0  0  0  0  0  0  0  0  0  0  0  0
   52.4830   51.8410   19.7000 C   0  0  0  0  0  0  0  0  0  0  0  0
   52.7850   50.5990   19.0620 O   0  0  0  0  0  0  0  0  0  0  0  0
   51.1840   49.1210   20.1090 C   0  0  0  0  0  0  0  0  0  0  0  0
   52.6640   49.4600   19.9180 C   0  0  0  0  0  0  0  0  0  0  0  0
  1 18  1  0  0  0  0
  2  1  1  0  0  0  0
  3  4  1  0  0  0  0
  3  1  1  0  0  0  0
  4  5  1  0  0  0  0
  6  3  2  0  0  0  0
  7  4  1  1  0  0  0
  7  8  1  0  0  0  0
  8  9  1  0  0  0  0
  9 10  1  6  0  0  0
 11  9  1  0  0  0  0
 12 11  1  0  0  0  0
 13 14  1  1  0  0  0
 13 12  1  0  0  0  0
 13  7  1  0  0  0  0
 14 16  1  0  0  0  0
 15 14  1  0  0  0  0
 17 21  1  0  0  0  0
 18 17  1  0  0  0  0
 18 19  1  0  0  0  0
 20 17  2  0  0  0  0
 22 21  1  0  0  0  0
 22 24  1  0  0  0  0
 24 23  1  0  0  0  0
M  END
>  <MODEL>
1

>  <REMARK>
  Name = ZINC66698987
                            x       y       z     vdW  Elec       q    Type
                         _______ _______ _______ _____ _____    ______ ____

>  <TORSDO>
F 6

>  <minimizedAffinity>
-6.8443075428481057

$$$$
ZINC66698987
 OpenBabel10211214283D

 24 24  0  0  1  0  0  0  0  0999 V2000
   52.4360   50.3860   16.3520 N   0  0  0  0  0  0  0  0  0  0  0  0
   53.2880   50.4610   15.8930 H   0  0  0  0  0  0  0  0  0  0  0  0
   51.2990   50.2420   15.6430 C   0  0  0  0  0  0  0  0  0  0  0  0
   50.1160   50.1380   16.2790 N   0  0  0  0  0  0  0  0  0  0  0  0
   50.0820   50.1660   17.2490 H   0  0  0  0  0  0  0  0  0  0  0  0
   51.3410   50.2070   14.4280 O   0  0  0  0  0  0  0  0  0  0  0  0
   48.8800   49.9820   15.5090 C   0  0  2  0  0  0  0  0  0  0  0  0
   48.3120   51.3620   15.1700 C   0  0  0  0  0  0  0  0  0  0  0  0
   48.0130   52.1210   16.4640 C   0  0  1  0  0  0  0  0  0  0  0  0
   47.4450   53.5010   16.1260 C   0  0  0  0  0  0  0  0  0  0  0  0
   46.9920   51.3380   17.2920 C   0  0  0  0  0  0  0  0  0  0  0  0
   47.5600   49.9590   17.6300 C   0  0  0  0  0  0  0  0  0  0  0  0
   47.8580   49.1980   16.3350 C   0  0  2  0  0  0  0  0  0  0  0  0
   48.4260   47.8180   16.6740 C   0  0  0  0  0  0  0  0  0  0  0  0
   47.3330   46.7620   16.5030 C   0  0  0  0  0  0  0  0  0  0  0  0
   48.9210   47.8120   18.1220 C   0  0  0  0  0  0  0  0  0  0  0  0
   52.6890   51.5680   18.4030 C   0  0  0  0  0  0  0  0  0  0  0  0
   52.3880   50.4270   17.7510 N   0  0  0  0  0  0  0  0  0  0  0  0
   52.1380   49.6340   18.2510 H   0  0  0  0  0  0  0  0  0  0  0  0
   53.0020   52.5590   17.7770 O   0  0  0  0  0  0  0  0  0  0  0  0
   52.6380   51.6120   19.9080 C   0  0  0  0  0  0  0  0  0  0  0  0
   51.8060   52.6960   20.3250 O   0  0  0  0  0  0  0  0  0  0  0  0
   51.5690   54.3220   22.0980 C   0  0  0  0  0  0  0  0  0  0  0  0
   51.7050   52.8390   21.7440 C   0  0  0  0  0  0  0  0  0  0  0  0
  1 18  1  0  0  0  0
  2  1  1  0  0  0  0
  3  4  1  0  0  0  0
  3  1  1  0  0  0  0
  4  5  1  0  0  0  0
  6  3  2  0  0  0  0
  7  4  1  1  0  0  0
  7 13  1  0  0  0  0
  8  7  1  0  0  0  0
  8  9  1  0  0  0  0
  9 10  1  6  0  0  0
  9 11  1  0  0  0  0
 11 12  1  0  0  0  0
 13 14  1  1  0  0  0
 13 12  1  0  0  0  0
 14 16  1  0  0  0  0
 15 14  1  0  0  0  0
 17 21  1  0  0  0  0
 18 19  1  0  0  0  0
 18 17  1  0  0  0  0
 20 17  2  0  0  0  0
 21 22  1  0  0  0  0
 22 24  1  0  0  0  0
 24 23  1  0  0  0  0
M  END
>  <MODEL>
2

>  <REMARK>
  Name = ZINC66698987
                            x       y       z     vdW  Elec       q    Type
                         _______ _______ _______ _____ _____    ______ ____

>  <TORSDO>
F 6

>  <minimizedAffinity>
-6.4680466411509361

$$$$
ZINC66698987
 OpenBabel10211214283D

 24 24  0  0  1  0  0  0  0  0999 V2000
   50.5980   49.5100   18.6460 N   0  0  0  0  0  0  0  0  0  0  0  0
   51.2250   48.7790   18.5270 H   0  0  0  0  0  0  0  0  0  0  0  0
   50.9610   50.7680   18.3260 C   0  0  0  0  0  0  0  0  0  0  0  0
   50.0900   51.7830   18.4910 N   0  0  0  0  0  0  0  0  0  0  0  0
   49.2020   51.6090   18.8400 H   0  0  0  0  0  0  0  0  0  0  0  0
   52.0740   50.9870   17.8880 O   0  0  0  0  0  0  0  0  0  0  0  0
   50.4840   53.1510   18.1440 C   0  0  2  0  0  0  0  0  0  0  0  0
   51.3150   53.7470   19.2810 C   0  0  0  0  0  0  0  0  0  0  0  0
   50.4830   53.7680   20.5640 C   0  0  1  0  0  0  0  0  0  0  0  0
   51.3130   54.3640   21.7020 C   0  0  0  0  0  0  0  0  0  0  0  0
   49.2310   54.6190   20.3470 C   0  0  0  0  0  0  0  0  0  0  0  0
   48.4000   54.0230   19.2100 C   0  0  0  0  0  0  0  0  0  0  0  0
   49.2330   54.0030   17.9250 C   0  0  2  0  0  0  0  0  0  0  0  0
   48.4010   53.4070   16.7870 C   0  0  0  0  0  0  0  0  0  0  0  0
   47.6780   54.5310   16.0420 C   0  0  0  0  0  0  0  0  0  0  0  0
   47.3720   52.4320   17.3640 C   0  0  0  0  0  0  0  0  0  0  0  0
   48.3630   48.7480   18.3450 C   0  0  0  0  0  0  0  0  0  0  0  0
   49.3160   49.2580   19.1510 N   0  0  0  0  0  0  0  0  0  0  0  0
   49.1140   49.4490   20.0810 H   0  0  0  0  0  0  0  0  0  0  0  0
   48.6160   48.5090   17.1840 O   0  0  0  0  0  0  0  0  0  0  0  0
   46.9840   48.4770   18.8880 C   0  0  0  0  0  0  0  0  0  0  0  0
   46.0050   48.9550   17.9640 O   0  0  0  0  0  0  0  0  0  0  0  0
   44.7520   47.2500   19.1320 C   0  0  0  0  0  0  0  0  0  0  0  0
   44.8260   48.1500   17.8960 C   0  0  0  0  0  0  0  0  0  0  0  0
  1 18  1  0  0  0  0
  2  1  1  0  0  0  0
  3  4  1  0  0  0  0
  3  1  1  0  0  0  0
  4  5  1  0  0  0  0
  6  3  2  0  0  0  0
  7  4  1  1  0  0  0
  7  8  1  0  0  0  0
  8  9  1  0  0  0  0
  9 10  1  6  0  0  0
 11  9  1  0  0  0  0
 12 11  1  0  0  0  0
 13 14  1  1  0  0  0
 13  7  1  0  0  0  0
 13 12  1  0  0  0  0
 14 16  1  0  0  0  0
 15 14  1  0  0  0  0
 17 21  1  0  0  0  0
 17 18  1  0  0  0  0
 18 19  1  0  0  0  0
 20 17  2  0  0  0  0
 22 21  1  0  0  0  0
 24 22  1  0  0  0  0
 24 23  1  0  0  0  0
M  END
>  <MODEL>
3

>  <REMARK>
  Name = ZINC66698987
                            x       y       z     vdW  Elec       q    Type
                         _______ _______ _______ _____ _____    ______ ____

>  <TORSDO>
F 6

>  <minimizedAffinity>
-6.4323113008613335

$$$$
ZINC66698987
 OpenBabel10211214283D

 24 24  0  0  1  0  0  0  0  0999 V2000
   48.9880   53.1050   17.5820 N   0  0  0  0  0  0  0  0  0  0  0  0
   49.0310   54.0620   17.4270 H   0  0  0  0  0  0  0  0  0  0  0  0
   48.1360   52.3430   16.8670 C   0  0  0  0  0  0  0  0  0  0  0  0
   48.0770   51.0140   17.0820 N   0  0  0  0  0  0  0  0  0  0  0  0
   48.6490   50.6050   17.7510 H   0  0  0  0  0  0  0  0  0  0  0  0
   47.4200   52.8560   16.0290 O   0  0  0  0  0  0  0  0  0  0  0  0
   47.1510   50.1870   16.3060 C   0  0  2  0  0  0  0  0  0  0  0  0
   46.2000   49.4560   17.2570 C   0  0  0  0  0  0  0  0  0  0  0  0
   47.0090   48.5660   18.2030 C   0  0  1  0  0  0  0  0  0  0  0  0
   46.0580   47.8360   19.1530 C   0  0  0  0  0  0  0  0  0  0  0  0
   47.8010   47.5420   17.3880 C   0  0  0  0  0  0  0  0  0  0  0  0
   48.7510   48.2720   16.4370 C   0  0  0  0  0  0  0  0  0  0  0  0
   47.9420   49.1620   15.4900 C   0  0  2  0  0  0  0  0  0  0  0  0
   48.8930   49.8920   14.5390 C   0  0  0  0  0  0  0  0  0  0  0  0
   48.3800   49.7580   13.1040 C   0  0  0  0  0  0  0  0  0  0  0  0
   50.2900   49.2770   14.6430 C   0  0  0  0  0  0  0  0  0  0  0  0
   50.2120   53.2280   19.6190 C   0  0  0  0  0  0  0  0  0  0  0  0
   49.8130   52.5150   18.5480 N   0  0  0  0  0  0  0  0  0  0  0  0
   50.0970   51.5930   18.4450 H   0  0  0  0  0  0  0  0  0  0  0  0
   49.8580   54.3800   19.7470 O   0  0  0  0  0  0  0  0  0  0  0  0
   51.1000   52.5930   20.6580 C   0  0  0  0  0  0  0  0  0  0  0  0
   51.9560   53.5870   21.2250 O   0  0  0  0  0  0  0  0  0  0  0  0
   51.7210   55.5430   22.6260 C   0  0  0  0  0  0  0  0  0  0  0  0
   51.5560   54.0250   22.5260 C   0  0  0  0  0  0  0  0  0  0  0  0
  1 18  1  0  0  0  0
  2  1  1  0  0  0  0
  3  4  1  0  0  0  0
  3  1  1  0  0  0  0
  4  5  1  0  0  0  0
  6  3  2  0  0  0  0
  7  4  1  1  0  0  0
  7  8  1  0  0  0  0
  8  9  1  0  0  0  0
  9 10  1  6  0  0  0
 11  9  1  0  0  0  0
 12 11  1  0  0  0  0
 13 14  1  1  0  0  0
 13  7  1  0  0  0  0
 13 12  1  0  0  0  0
 14 16  1  0  0  0  0
 15 14  1  0  0  0  0
 17 20  2  0  0  0  0
 17 21  1  0  0  0  0
 18 17  1  0  0  0  0
 19 18  1  0  0  0  0
 21 22  1  0  0  0  0
 22 24  1  0  0  0  0
 24 23  1  0  0  0  0
M  END
>  <MODEL>
4

>  <REMARK>
  Name = ZINC66698987
                            x       y       z     vdW  Elec       q    Type
                         _______ _______ _______ _____ _____    ______ ____

>  <TORSDO>
F 6

>  <minimizedAffinity>
-6.367094297572871

$$$$
ZINC66698987
 OpenBabel10211214283D

 24 24  0  0  1  0  0  0  0  0999 V2000
   47.7730   57.5990   19.2280 N   0  0  0  0  0  0  0  0  0  0  0  0
   46.9950   58.1760   19.2890 H   0  0  0  0  0  0  0  0  0  0  0  0
   48.4740   57.2940   20.3370 C   0  0  0  0  0  0  0  0  0  0  0  0
   49.5550   56.4940   20.2530 N   0  0  0  0  0  0  0  0  0  0  0  0
   49.8280   56.1360   19.3940 H   0  0  0  0  0  0  0  0  0  0  0  0
   48.1320   57.7420   21.4150 O   0  0  0  0  0  0  0  0  0  0  0  0
   50.3170   56.1620   21.4590 C   0  0  2  0  0  0  0  0  0  0  0  0
   51.1910   57.3540   21.8540 C   0  0  0  0  0  0  0  0  0  0  0  0
   52.1570   57.6780   20.7130 C   0  0  1  0  0  0  0  0  0  0  0  0
   53.0310   58.8710   21.1080 C   0  0  0  0  0  0  0  0  0  0  0  0
   53.0460   56.4650   20.4370 C   0  0  0  0  0  0  0  0  0  0  0  0
   52.1730   55.2730   20.0420 C   0  0  0  0  0  0  0  0  0  0  0  0
   51.2060   54.9470   21.1840 C   0  0  2  0  0  0  0  0  0  0  0  0
   50.3330   53.7550   20.7880 C   0  0  0  0  0  0  0  0  0  0  0  0
   50.6370   52.5730   21.7110 C   0  0  0  0  0  0  0  0  0  0  0  0
   50.6310   53.3620   19.3400 C   0  0  0  0  0  0  0  0  0  0  0  0
   47.6800   57.6190   16.8500 C   0  0  0  0  0  0  0  0  0  0  0  0
   48.1670   57.0840   17.9870 N   0  0  0  0  0  0  0  0  0  0  0  0
   48.7910   56.3410   17.9460 H   0  0  0  0  0  0  0  0  0  0  0  0
   46.9010   58.5470   16.9010 O   0  0  0  0  0  0  0  0  0  0  0  0
   48.1040   57.0640   15.5140 C   0  0  0  0  0  0  0  0  0  0  0  0
   47.1810   57.4860   14.5080 O   0  0  0  0  0  0  0  0  0  0  0  0
   44.8240   56.9500   14.5070 C   0  0  0  0  0  0  0  0  0  0  0  0
   46.2330   56.4850   14.1310 C   0  0  0  0  0  0  0  0  0  0  0  0
  1  2  1  0  0  0  0
  1  3  1  0  0  0  0
  3  6  2  0  0  0  0
  4  3  1  0  0  0  0
  5  4  1  0  0  0  0
  7  4  1  6  0  0  0
  7  8  1  0  0  0  0
  9 10  1  1  0  0  0
  9  8  1  0  0  0  0
 11  9  1  0  0  0  0
 12 11  1  0  0  0  0
 12 13  1  0  0  0  0
 13 14  1  6  0  0  0
 13  7  1  0  0  0  0
 14 15  1  0  0  0  0
 16 14  1  0  0  0  0
 17 20  2  0  0  0  0
 17 18  1  0  0  0  0
 18  1  1  0  0  0  0
 19 18  1  0  0  0  0
 21 17  1  0  0  0  0
 22 21  1  0  0  0  0
 24 23  1  0  0  0  0
 24 22  1  0  0  0  0
M  END
>  <MODEL>
5

>  <REMARK>
  Name = ZINC66698987
                            x       y       z     vdW  Elec       q    Type
                         _______ _______ _______ _____ _____    ______ ____

>  <TORSDO>
F 6

>  <minimizedAffinity>
-6.2319004692741808

$$$$
ZINC66698987
 OpenBabel10211214283D

 24 24  0  0  1  0  0  0  0  0999 V2000
   51.3650   50.3080   15.3040 N   0  0  0  0  0  0  0  0  0  0  0  0
   51.7550   50.0330   14.4590 H   0  0  0  0  0  0  0  0  0  0  0  0
   52.1550   50.5220   16.3740 C   0  0  0  0  0  0  0  0  0  0  0  0
   51.6130   50.9040   17.5470 N   0  0  0  0  0  0  0  0  0  0  0  0
   50.6540   51.0260   17.6210 H   0  0  0  0  0  0  0  0  0  0  0  0
   53.3580   50.3700   16.2810 O   0  0  0  0  0  0  0  0  0  0  0  0
   52.4720   51.1370   18.7100 C   0  0  2  0  0  0  0  0  0  0  0  0
   52.5830   49.8490   19.5280 C   0  0  0  0  0  0  0  0  0  0  0  0
   51.1910   49.4230   20.0000 C   0  0  1  0  0  0  0  0  0  0  0  0
   51.3020   48.1340   20.8170 C   0  0  0  0  0  0  0  0  0  0  0  0
   50.5860   50.5270   20.8680 C   0  0  0  0  0  0  0  0  0  0  0  0
   50.4750   51.8150   20.0500 C   0  0  0  0  0  0  0  0  0  0  0  0
   51.8680   52.2420   19.5790 C   0  0  2  0  0  0  0  0  0  0  0  0
   51.7570   53.5310   18.7610 C   0  0  0  0  0  0  0  0  0  0  0  0
   52.4770   54.6630   19.4960 C   0  0  0  0  0  0  0  0  0  0  0  0
   50.2820   53.8950   18.5800 C   0  0  0  0  0  0  0  0  0  0  0  0
   49.1600   49.4140   15.3710 C   0  0  0  0  0  0  0  0  0  0  0  0
   49.9790   50.4830   15.4100 N   0  0  0  0  0  0  0  0  0  0  0  0
   49.6090   51.3750   15.5120 H   0  0  0  0  0  0  0  0  0  0  0  0
   49.6220   48.3000   15.2440 O   0  0  0  0  0  0  0  0  0  0  0  0
   47.6690   49.6030   15.4860 C   0  0  0  0  0  0  0  0  0  0  0  0
   47.3560   50.1680   16.7600 O   0  0  0  0  0  0  0  0  0  0  0  0
   47.7170   48.8190   18.7340 C   0  0  0  0  0  0  0  0  0  0  0  0
   46.7190   49.2570   17.6600 C   0  0  0  0  0  0  0  0  0  0  0  0
  1 18  1  0  0  0  0
  1  3  1  0  0  0  0
  2  1  1  0  0  0  0
  3  4  1  0  0  0  0
  4  5  1  0  0  0  0
  6  3  2  0  0  0  0
  7  4  1  1  0  0  0
  7  8  1  0  0  0  0
  7 13  1  0  0  0  0
  8  9  1  0  0  0  0
  9 10  1  1  0  0  0
  9 11  1  0  0  0  0
 12 11  1  0  0  0  0
 13 14  1  6  0  0  0
 13 12  1  0  0  0  0
 14 15  1  0  0  0  0
 16 14  1  0  0  0  0
 17 18  1  0  0  0  0
 17 21  1  0  0  0  0
 18 19  1  0  0  0  0
 20 17  2  0  0  0  0
 21 22  1  0  0  0  0
 22 24  1  0  0  0  0
 24 23  1  0  0  0  0
M  END
>  <MODEL>
6

>  <REMARK>
  Name = ZINC66698987
                            x       y       z     vdW  Elec       q    Type
                         _______ _______ _______ _____ _____    ______ ____

>  <TORSDO>
F 6

>  <minimizedAffinity>
-6.2111943771347748

$$$$
ZINC66698987
 OpenBabel10211214283D

 24 24  0  0  1  0  0  0  0  0999 V2000
   47.9350   48.3050   19.4560 N   0  0  0  0  0  0  0  0  0  0  0  0
   48.1370   47.6710   20.1630 H   0  0  0  0  0  0  0  0  0  0  0  0
   48.9180   49.0580   18.9260 C   0  0  0  0  0  0  0  0  0  0  0  0
   48.6380   49.9380   17.9440 N   0  0  0  0  0  0  0  0  0  0  0  0
   47.7280   50.0290   17.6190 H   0  0  0  0  0  0  0  0  0  0  0  0
   50.0580   48.9440   19.3320 O   0  0  0  0  0  0  0  0  0  0  0  0
   49.7060   50.7570   17.3670 C   0  0  2  0  0  0  0  0  0  0  0  0
   49.7790   52.0950   18.1060 C   0  0  0  0  0  0  0  0  0  0  0  0
   48.4430   52.8280   17.9670 C   0  0  1  0  0  0  0  0  0  0  0  0
   48.5150   54.1650   18.7060 C   0  0  0  0  0  0  0  0  0  0  0  0
   48.1500   53.0790   16.4870 C   0  0  0  0  0  0  0  0  0  0  0  0
   48.0770   51.7410   15.7480 C   0  0  0  0  0  0  0  0  0  0  0  0
   49.4140   51.0080   15.8860 C   0  0  2  0  0  0  0  0  0  0  0  0
   49.3410   49.6700   15.1470 C   0  0  0  0  0  0  0  0  0  0  0  0
   50.6060   49.4850   14.3050 C   0  0  0  0  0  0  0  0  0  0  0  0
   48.1130   49.6580   14.2350 C   0  0  0  0  0  0  0  0  0  0  0  0
   46.2340   47.7810   17.8760 C   0  0  0  0  0  0  0  0  0  0  0  0
   46.6210   48.4350   18.9880 N   0  0  0  0  0  0  0  0  0  0  0  0
   45.9900   48.9970   19.4660 H   0  0  0  0  0  0  0  0  0  0  0  0
   47.0230   47.0790   17.2790 O   0  0  0  0  0  0  0  0  0  0  0  0
   44.8210   47.9220   17.3720 C   0  0  0  0  0  0  0  0  0  0  0  0
   44.6700   47.1790   16.1600 O   0  0  0  0  0  0  0  0  0  0  0  0
   45.2310   47.1660   13.8090 C   0  0  0  0  0  0  0  0  0  0  0  0
   44.6820   47.9850   14.9800 C   0  0  0  0  0  0  0  0  0  0  0  0
  1  2  1  0  0  0  0
  3  6  2  0  0  0  0
  3  1  1  0  0  0  0
  4  3  1  0  0  0  0
  5  4  1  0  0  0  0
  7  4  1  6  0  0  0
  7  8  1  0  0  0  0
  9  8  1  0  0  0  0
  9 10  1  6  0  0  0
 11  9  1  0  0  0  0
 12 13  1  0  0  0  0
 12 11  1  0  0  0  0
 13 14  1  1  0  0  0
 13  7  1  0  0  0  0
 15 14  1  0  0  0  0
 16 14  1  0  0  0  0
 17 18  1  0  0  0  0
 18  1  1  0  0  0  0
 18 19  1  0  0  0  0
 20 17  2  0  0  0  0
 21 17  1  0  0  0  0
 22 21  1  0  0  0  0
 23 24  1  0  0  0  0
 24 22  1  0  0  0  0
M  END
>  <MODEL>
7

>  <REMARK>
  Name = ZINC66698987
                            x       y       z     vdW  Elec       q    Type
                         _______ _______ _______ _____ _____    ______ ____

>  <TORSDO>
F 6

>  <minimizedAffinity>
-6.19781435548839

$$$$
ZINC66698987
 OpenBabel10211214283D

 24 24  0  0  1  0  0  0  0  0999 V2000
   51.4630   54.1210   18.7940 N   0  0  0  0  0  0  0  0  0  0  0  0
   52.1880   54.7510   18.9360 H   0  0  0  0  0  0  0  0  0  0  0  0
   51.7250   52.8870   18.3220 C   0  0  0  0  0  0  0  0  0  0  0  0
   50.7190   52.0130   18.1260 N   0  0  0  0  0  0  0  0  0  0  0  0
   49.8050   52.2720   18.3250 H   0  0  0  0  0  0  0  0  0  0  0  0
   52.8700   52.5620   18.0730 O   0  0  0  0  0  0  0  0  0  0  0  0
   51.0030   50.6710   17.6120 C   0  0  2  0  0  0  0  0  0  0  0  0
   50.3370   50.4950   16.2460 C   0  0  0  0  0  0  0  0  0  0  0  0
   48.8240   50.6750   16.3900 C   0  0  1  0  0  0  0  0  0  0  0  0
   48.1580   50.5000   15.0240 C   0  0  0  0  0  0  0  0  0  0  0  0
   48.2760   49.6300   17.3630 C   0  0  0  0  0  0  0  0  0  0  0  0
   48.9420   49.8060   18.7280 C   0  0  0  0  0  0  0  0  0  0  0  0
   50.4550   49.6250   18.5850 C   0  0  2  0  0  0  0  0  0  0  0  0
   51.1210   49.8000   19.9520 C   0  0  0  0  0  0  0  0  0  0  0  0
   52.6190   49.5070   19.8290 C   0  0  0  0  0  0  0  0  0  0  0  0
   50.4910   48.8320   20.9540 C   0  0  0  0  0  0  0  0  0  0  0  0
   49.8670   55.7650   19.4400 C   0  0  0  0  0  0  0  0  0  0  0  0
   50.1440   54.4960   19.0810 N   0  0  0  0  0  0  0  0  0  0  0  0
   49.4300   53.8420   19.0220 H   0  0  0  0  0  0  0  0  0  0  0  0
   50.7600   56.5830   19.5150 O   0  0  0  0  0  0  0  0  0  0  0  0
   48.4480   56.1690   19.7490 C   0  0  0  0  0  0  0  0  0  0  0  0
   48.2940   57.5720   19.5310 O   0  0  0  0  0  0  0  0  0  0  0  0
   48.7430   58.2780   21.7980 C   0  0  0  0  0  0  0  0  0  0  0  0
   47.7380   58.2760   20.6440 C   0  0  0  0  0  0  0  0  0  0  0  0
  1  2  1  0  0  0  0
  1 18  1  0  0  0  0
  3  1  1  0  0  0  0
  4  3  1  0  0  0  0
  4  5  1  0  0  0  0
  6  3  2  0  0  0  0
  7  4  1  1  0  0  0
  7 13  1  0  0  0  0
  8  9  1  0  0  0  0
  8  7  1  0  0  0  0
  9 10  1  6  0  0  0
  9 11  1  0  0  0  0
 11 12  1  0  0  0  0
 13 12  1  0  0  0  0
 13 14  1  1  0  0  0
 14 16  1  0  0  0  0
 15 14  1  0  0  0  0
 17 20  2  0  0  0  0
 17 21  1  0  0  0  0
 18 17  1  0  0  0  0
 19 18  1  0  0  0  0
 22 21  1  0  0  0  0
 22 24  1  0  0  0  0
 24 23  1  0  0  0  0
M  END
>  <MODEL>
8

>  <REMARK>
  Name = ZINC66698987
                            x       y       z     vdW  Elec       q    Type
                         _______ _______ _______ _____ _____    ______ ____

>  <TORSDO>
F 6

>  <minimizedAffinity>
-6.1930395361940942

$$$$
ZINC66698987
 OpenBabel10211214283D

 24 24  0  0  1  0  0  0  0  0999 V2000
   50.3920   50.5880   19.8840 N   0  0  0  0  0  0  0  0  0  0  0  0
   50.9280   50.4310   20.6780 H   0  0  0  0  0  0  0  0  0  0  0  0
   49.9490   49.5450   19.1550 C   0  0  0  0  0  0  0  0  0  0  0  0
   49.2050   49.7620   18.0530 N   0  0  0  0  0  0  0  0  0  0  0  0
   48.9880   50.6690   17.7840 H   0  0  0  0  0  0  0  0  0  0  0  0
   50.2200   48.4080   19.4910 O   0  0  0  0  0  0  0  0  0  0  0  0
   48.7220   48.6290   17.2590 C   0  0  2  0  0  0  0  0  0  0  0  0
   49.6490   48.4140   16.0610 C   0  0  0  0  0  0  0  0  0  0  0  0
   49.6620   49.6740   15.1940 C   0  0  1  0  0  0  0  0  0  0  0  0
   50.5880   49.4590   13.9960 C   0  0  0  0  0  0  0  0  0  0  0  0
   48.2450   49.9660   14.6960 C   0  0  0  0  0  0  0  0  0  0  0  0
   47.3190   50.1820   15.8950 C   0  0  0  0  0  0  0  0  0  0  0  0
   47.3050   48.9200   16.7620 C   0  0  2  0  0  0  0  0  0  0  0  0
   46.3770   49.1360   17.9600 C   0  0  0  0  0  0  0  0  0  0  0  0
   46.5130   47.9580   18.9270 C   0  0  0  0  0  0  0  0  0  0  0  0
   44.9300   49.2350   17.4740 C   0  0  0  0  0  0  0  0  0  0  0  0
   51.0640   52.8020   19.3260 C   0  0  0  0  0  0  0  0  0  0  0  0
   50.0810   51.8970   19.4970 N   0  0  0  0  0  0  0  0  0  0  0  0
   49.1550   52.1520   19.3520 H   0  0  0  0  0  0  0  0  0  0  0  0
   52.2200   52.4820   19.5080 O   0  0  0  0  0  0  0  0  0  0  0  0
   50.7280   54.2110   18.9100 C   0  0  0  0  0  0  0  0  0  0  0  0
   49.3100   54.3850   18.9200 O   0  0  0  0  0  0  0  0  0  0  0  0
   48.1740   53.5920   16.9390 C   0  0  0  0  0  0  0  0  0  0  0  0
   48.7660   54.8020   17.6660 C   0  0  0  0  0  0  0  0  0  0  0  0
  1  2  1  0  0  0  0
  3  6  2  0  0  0  0
  3  1  1  0  0  0  0
  4  3  1  0  0  0  0
  5  4  1  0  0  0  0
  7  4  1  6  0  0  0
  8  7  1  0  0  0  0
  9 10  1  6  0  0  0
  9  8  1  0  0  0  0
 11  9  1  0  0  0  0
 11 12  1  0  0  0  0
 12 13  1  0  0  0  0
 13  7  1  0  0  0  0
 13 14  1  1  0  0  0
 14 15  1  0  0  0  0
 16 14  1  0  0  0  0
 17 18  1  0  0  0  0
 17 20  2  0  0  0  0
 18  1  1  0  0  0  0
 19 18  1  0  0  0  0
 21 22  1  0  0  0  0
 21 17  1  0  0  0  0
 23 24  1  0  0  0  0
 24 22  1  0  0  0  0
M  END
>  <MODEL>
9

>  <REMARK>
  Name = ZINC66698987
                            x       y       z     vdW  Elec       q    Type
                         _______ _______ _______ _____ _____    ______ ____

>  <TORSDO>
F 6

>  <minimizedAffinity>
-6.1132523908689258

$$$$
ZINC43708984
 OpenBabel10211214293D

 24 25  0  0  1  0  0  0  0  0999 V2000
   51.4130   56.1320   21.8380 C   0  0  0  0  0  0  0  0  0  0  0  0
   51.8380   54.8770   22.2530 C   0  0  0  0  0  0  0  0  0  0  0  0
   51.3460   53.7440   21.6370 C   0  0  0  0  0  0  0  0  0  0  0  0
   50.4260   53.8590   20.6030 C   0  0  0  0  0  0  0  0  0  0  0  0
   50.0020   55.1140   20.1870 C   0  0  0  0  0  0  0  0  0  0  0  0
   50.4890   56.2470   20.8070 C   0  0  0  0  0  0  0  0  0  0  0  0
   49.9280   52.7080   19.9780 N   0  0  0  0  0  0  0  0  0  0  0  0
   49.1340   52.2710   20.3260 H   0  0  0  0  0  0  0  0  0  0  0  0
   50.5510   52.2060   18.8940 C   0  0  0  0  0  0  0  0  0  0  0  0
   51.5950   52.6930   18.5140 O   0  0  0  0  0  0  0  0  0  0  0  0
   49.9510   51.0380   18.1530 C   0  0  1  0  0  0  0  0  0  0  0  0
   50.0930   49.7690   18.9990 C   0  0  0  0  0  0  0  0  0  0  0  0
   49.4560   48.6440   18.3010 N   0  0  0  0  0  0  0  0  0  0  0  0
   49.5500   47.8070   18.8560 H   0  0  0  0  0  0  0  0  0  0  0  0
   49.9040   48.5060   17.4070 H   0  0  0  0  0  0  0  0  0  0  0  0
   48.0320   48.9400   18.0950 C   0  0  0  0  0  0  0  0  0  0  0  0
   47.8940   50.2100   17.2510 C   0  0  0  0  0  0  0  0  0  0  0  0
   48.5650   51.2890   17.9080 O   0  0  0  0  0  0  0  0  0  0  0  0
   51.9120   57.2810   22.4610 N   0  0  0  0  0  0  0  0  0  0  0  0
   51.4200   57.6900   23.1900 H   0  0  0  0  0  0  0  0  0  0  0  0
   53.5310   57.3870   20.2380 C   0  0  0  0  0  0  0  0  0  0  0  0
   53.3430   57.9420   21.9540 S   0  0  0  0  0  0  0  0  0  0  0  0
   53.1280   59.3460   21.9930 O   0  0  0  0  0  0  0  0  0  0  0  0
   54.3320   57.3380   22.7760 O   0  0  0  0  0  0  0  0  0  0  0  0
  1  2  1  0  0  0  0
  1 19  1  0  0  0  0
  3  2  2  0  0  0  0
  4  3  1  0  0  0  0
  5  4  2  0  0  0  0
  5  6  1  0  0  0  0
  6  1  2  0  0  0  0
  7  8  1  0  0  0  0
  7  4  1  0  0  0  0
  9  7  1  0  0  0  0
 10  9  2  0  0  0  0
 11  9  1  1  0  0  0
 11 12  1  0  0  0  0
 13 14  1  0  0  0  0
 13 12  1  0  0  0  0
 15 13  1  0  0  0  0
 16 13  1  0  0  0  0
 17 18  1  0  0  0  0
 17 16  1  0  0  0  0
 18 11  1  0  0  0  0
 19 20  1  0  0  0  0
 21 22  1  0  0  0  0
 22 23  2  0  0  0  0
 22 19  1  0  0  0  0
 22 24  2  0  0  0  0
M  END
>  <MODEL>
1

>  <REMARK>
  Name = ZINC43708984
                            x       y       z     vdW  Elec       q    Type
                         _______ _______ _______ _____ _____    ______ ____

>  <TORSDO>
F 4

>  <minimizedAffinity>
-7.2501717812401401

$$$$
ZINC43708984
 OpenBabel10211214293D

 24 25  0  0  1  0  0  0  0  0999 V2000
   51.4680   51.3530   20.1090 C   0  0  0  0  0  0  0  0  0  0  0  0
   50.9690   50.2760   20.8290 C   0  0  0  0  0  0  0  0  0  0  0  0
   50.2120   49.3130   20.1930 C   0  0  0  0  0  0  0  0  0  0  0  0
   49.9490   49.4210   18.8330 C   0  0  0  0  0  0  0  0  0  0  0  0
   50.4490   50.4980   18.1130 C   0  0  0  0  0  0  0  0  0  0  0  0
   51.2010   51.4650   18.7500 C   0  0  0  0  0  0  0  0  0  0  0  0
   49.1800   48.4430   18.1880 N   0  0  0  0  0  0  0  0  0  0  0  0
   49.5900   47.6070   17.9130 H   0  0  0  0  0  0  0  0  0  0  0  0
   47.8720   48.6620   17.9500 C   0  0  0  0  0  0  0  0  0  0  0  0
   47.3810   49.7410   18.2080 O   0  0  0  0  0  0  0  0  0  0  0  0
   47.0190   47.5670   17.3620 C   0  0  1  0  0  0  0  0  0  0  0  0
   45.7090   47.4630   18.1480 C   0  0  0  0  0  0  0  0  0  0  0  0
   44.8550   46.4350   17.5370 N   0  0  0  0  0  0  0  0  0  0  0  0
   43.9910   46.3650   18.0540 H   0  0  0  0  0  0  0  0  0  0  0  0
   45.3320   45.5460   17.5580 H   0  0  0  0  0  0  0  0  0  0  0  0
   44.5650   46.8040   16.1450 C   0  0  0  0  0  0  0  0  0  0  0  0
   45.8780   46.9100   15.3640 C   0  0  0  0  0  0  0  0  0  0  0  0
   46.7280   47.8700   15.9960 O   0  0  0  0  0  0  0  0  0  0  0  0
   52.2370   52.3290   20.7530 N   0  0  0  0  0  0  0  0  0  0  0  0
   53.1740   52.1630   20.9410 H   0  0  0  0  0  0  0  0  0  0  0  0
   52.2460   54.9900   20.0460 C   0  0  0  0  0  0  0  0  0  0  0  0
   51.5470   53.7690   21.1910 S   0  0  0  0  0  0  0  0  0  0  0  0
   50.1590   53.5990   20.9370 O   0  0  0  0  0  0  0  0  0  0  0  0
   52.0180   54.0090   22.5100 O   0  0  0  0  0  0  0  0  0  0  0  0
  1 19  1  0  0  0  0
  1  2  2  0  0  0  0
  3  2  1  0  0  0  0
  4  3  2  0  0  0  0
  5  6  2  0  0  0  0
  5  4  1  0  0  0  0
  6  1  1  0  0  0  0
  7  4  1  0  0  0  0
  8  7  1  0  0  0  0
  9  7  1  0  0  0  0
  9 10  2  0  0  0  0
 11  9  1  6  0  0  0
 11 12  1  0  0  0  0
 13 15  1  0  0  0  0
 13 14  1  0  0  0  0
 13 12  1  0  0  0  0
 16 13  1  0  0  0  0
 17 18  1  0  0  0  0
 17 16  1  0  0  0  0
 18 11  1  0  0  0  0
 19 20  1  0  0  0  0
 19 22  1  0  0  0  0
 21 22  1  0  0  0  0
 22 24  2  0  0  0  0
 23 22  2  0  0  0  0
M  END
>  <MODEL>
2

>  <REMARK>
  Name = ZINC43708984
                            x       y       z     vdW  Elec       q    Type
                         _______ _______ _______ _____ _____    ______ ____

>  <TORSDO>
F 4

>  <minimizedAffinity>
-7.0652526281036776

$$$$
ZINC43708984
 OpenBabel10211214293D

 24 25  0  0  1  0  0  0  0  0999 V2000
   46.5590   46.9940   16.9960 C   0  0  0  0  0  0  0  0  0  0  0  0
   47.9110   46.8960   16.6930 C   0  0  0  0  0  0  0  0  0  0  0  0
   48.8300   47.6550   17.3890 C   0  0  0  0  0  0  0  0  0  0  0  0
   48.4030   48.5160   18.3920 C   0  0  0  0  0  0  0  0  0  0  0  0
   47.0520   48.6130   18.6950 C   0  0  0  0  0  0  0  0  0  0  0  0
   46.1320   47.8590   17.9950 C   0  0  0  0  0  0  0  0  0  0  0  0
   49.3380   49.2860   19.0980 N   0  0  0  0  0  0  0  0  0  0  0  0
   49.6770   48.9740   19.9520 H   0  0  0  0  0  0  0  0  0  0  0  0
   49.7640   50.4600   18.5920 C   0  0  0  0  0  0  0  0  0  0  0  0
   49.2710   50.8960   17.5730 O   0  0  0  0  0  0  0  0  0  0  0  0
   50.8530   51.2310   19.2920 C   0  0  1  0  0  0  0  0  0  0  0  0
   50.3610   52.6500   19.5940 C   0  0  0  0  0  0  0  0  0  0  0  0
   51.4020   53.3810   20.3280 N   0  0  0  0  0  0  0  0  0  0  0  0
   51.0800   54.3160   20.5270 H   0  0  0  0  0  0  0  0  0  0  0  0
   52.2400   53.4260   19.7670 H   0  0  0  0  0  0  0  0  0  0  0  0
   51.6930   52.6840   21.5880 C   0  0  0  0  0  0  0  0  0  0  0  0
   52.1820   51.2660   21.2840 C   0  0  0  0  0  0  0  0  0  0  0  0
   51.1880   50.5780   20.5190 O   0  0  0  0  0  0  0  0  0  0  0  0
   45.6270   46.2240   16.2910 N   0  0  0  0  0  0  0  0  0  0  0  0
   45.4710   45.3000   16.5440 H   0  0  0  0  0  0  0  0  0  0  0  0
   44.5550   45.5290   13.8530 C   0  0  0  0  0  0  0  0  0  0  0  0
   44.7890   46.8900   15.0280 S   0  0  0  0  0  0  0  0  0  0  0  0
   43.5400   47.2760   15.5840 O   0  0  0  0  0  0  0  0  0  0  0  0
   45.6710   47.8620   14.4820 O   0  0  0  0  0  0  0  0  0  0  0  0
  1  6  1  0  0  0  0
  2  1  2  0  0  0  0
  2  3  1  0  0  0  0
  3  4  2  0  0  0  0
  4  5  1  0  0  0  0
  4  7  1  0  0  0  0
  6  5  2  0  0  0  0
  7  8  1  0  0  0  0
  9  7  1  0  0  0  0
 10  9  2  0  0  0  0
 11  9  1  1  0  0  0
 11 12  1  0  0  0  0
 11 18  1  0  0  0  0
 12 13  1  0  0  0  0
 13 14  1  0  0  0  0
 13 16  1  0  0  0  0
 15 13  1  0  0  0  0
 17 16  1  0  0  0  0
 18 17  1  0  0  0  0
 19 20  1  0  0  0  0
 19  1  1  0  0  0  0
 21 22  1  0  0  0  0
 22 23  2  0  0  0  0
 22 19  1  0  0  0  0
 24 22  2  0  0  0  0
M  END
>  <MODEL>
3

>  <REMARK>
  Name = ZINC43708984
                            x       y       z     vdW  Elec       q    Type
                         _______ _______ _______ _____ _____    ______ ____

>  <TORSDO>
F 4

>  <minimizedAffinity>
-7.0199761170975217

$$$$
ZINC43708984
 OpenBabel10211214293D

 24 25  0  0  1  0  0  0  0  0999 V2000
   49.7790   50.3910   18.0560 C   0  0  0  0  0  0  0  0  0  0  0  0
   49.2870   51.5350   17.4420 C   0  0  0  0  0  0  0  0  0  0  0  0
   49.4880   52.7710   18.0250 C   0  0  0  0  0  0  0  0  0  0  0  0
   50.1800   52.8690   19.2250 C   0  0  0  0  0  0  0  0  0  0  0  0
   50.6720   51.7250   19.8380 C   0  0  0  0  0  0  0  0  0  0  0  0
   50.4660   50.4890   19.2590 C   0  0  0  0  0  0  0  0  0  0  0  0
   50.3830   54.1240   19.8150 N   0  0  0  0  0  0  0  0  0  0  0  0
   49.7060   54.5000   20.4010 H   0  0  0  0  0  0  0  0  0  0  0  0
   51.5170   54.8080   19.5710 C   0  0  0  0  0  0  0  0  0  0  0  0
   52.3210   54.3840   18.7660 O   0  0  0  0  0  0  0  0  0  0  0  0
   51.7880   56.1020   20.2950 C   0  0  1  0  0  0  0  0  0  0  0  0
   51.7280   55.8640   21.8060 C   0  0  0  0  0  0  0  0  0  0  0  0
   52.0500   57.1130   22.5100 N   0  0  0  0  0  0  0  0  0  0  0  0
   52.0090   56.9580   23.5060 H   0  0  0  0  0  0  0  0  0  0  0  0
   51.3820   57.8250   22.2530 H   0  0  0  0  0  0  0  0  0  0  0  0
   53.4010   57.5510   22.1350 C   0  0  0  0  0  0  0  0  0  0  0  0
   53.4590   57.7850   20.6230 C   0  0  0  0  0  0  0  0  0  0  0  0
   53.0890   56.5820   19.9440 O   0  0  0  0  0  0  0  0  0  0  0  0
   49.5770   49.1390   17.4650 N   0  0  0  0  0  0  0  0  0  0  0  0
   50.3150   48.6820   17.0320 H   0  0  0  0  0  0  0  0  0  0  0  0
   47.1610   49.2130   16.1480 C   0  0  0  0  0  0  0  0  0  0  0  0
   48.0780   48.4370   17.5070 S   0  0  0  0  0  0  0  0  0  0  0  0
   48.3110   47.0650   17.2180 O   0  0  0  0  0  0  0  0  0  0  0  0
   47.5280   48.8300   18.7560 O   0  0  0  0  0  0  0  0  0  0  0  0
  1  6  2  0  0  0  0
  2  3  2  0  0  0  0
  2  1  1  0  0  0  0
  3  4  1  0  0  0  0
  4  7  1  0  0  0  0
  4  5  2  0  0  0  0
  6  5  1  0  0  0  0
  7  8  1  0  0  0  0
  9  7  1  0  0  0  0
 10  9  2  0  0  0  0
 11  9  1  1  0  0  0
 11 12  1  0  0  0  0
 12 13  1  0  0  0  0
 13 14  1  0  0  0  0
 15 13  1  0  0  0  0
 16 13  1  0  0  0  0
 17 16  1  0  0  0  0
 18 11  1  0  0  0  0
 18 17  1  0  0  0  0
 19 22  1  0  0  0  0
 19  1  1  0  0  0  0
 20 19  1  0  0  0  0
 21 22  1  0  0  0  0
 22 24  2  0  0  0  0
 23 22  2  0  0  0  0
M  END
>  <MODEL>
4

>  <REMARK>
  Name = ZINC43708984
                            x       y       z     vdW  Elec       q    Type
                         _______ _______ _______ _____ _____    ______ ____

>  <TORSDO>
F 4

>  <minimizedAffinity>
-6.9635827567441204

$$$$
ZINC43708984
 OpenBabel10211214293D

 24 25  0  0  1  0  0  0  0  0999 V2000
   50.5250   50.6100   18.4190 C   0  0  0  0  0  0  0  0  0  0  0  0
   51.8100   50.9910   18.0600 C   0  0  0  0  0  0  0  0  0  0  0  0
   52.2240   52.2930   18.2580 C   0  0  0  0  0  0  0  0  0  0  0  0
   51.3530   53.2220   18.8140 C   0  0  0  0  0  0  0  0  0  0  0  0
   50.0680   52.8400   19.1740 C   0  0  0  0  0  0  0  0  0  0  0  0
   49.6520   51.5390   18.9700 C   0  0  0  0  0  0  0  0  0  0  0  0
   51.7740   54.5440   19.0140 N   0  0  0  0  0  0  0  0  0  0  0  0
   51.8460   55.1500   18.2590 H   0  0  0  0  0  0  0  0  0  0  0  0
   52.0800   54.9740   20.2530 C   0  0  0  0  0  0  0  0  0  0  0  0
   52.0820   54.1940   21.1830 O   0  0  0  0  0  0  0  0  0  0  0  0
   52.4200   56.4240   20.4860 C   0  0  1  0  0  0  0  0  0  0  0  0
   51.8520   56.8710   21.8360 C   0  0  0  0  0  0  0  0  0  0  0  0
   52.2350   58.2670   22.0870 N   0  0  0  0  0  0  0  0  0  0  0  0
   51.8610   58.5650   22.9750 H   0  0  0  0  0  0  0  0  0  0  0  0
   51.8650   58.8540   21.3530 H   0  0  0  0  0  0  0  0  0  0  0  0
   53.7000   58.3760   22.1100 C   0  0  0  0  0  0  0  0  0  0  0  0
   54.2640   57.9250   20.7600 C   0  0  0  0  0  0  0  0  0  0  0  0
   53.8410   56.5850   20.4950 O   0  0  0  0  0  0  0  0  0  0  0  0
   50.1050   49.2890   18.2210 N   0  0  0  0  0  0  0  0  0  0  0  0
   50.5940   48.5590   18.6310 H   0  0  0  0  0  0  0  0  0  0  0  0
   47.3860   48.9280   18.4520 C   0  0  0  0  0  0  0  0  0  0  0  0
   48.7750   48.9750   17.2860 S   0  0  0  0  0  0  0  0  0  0  0  0
   48.6570   50.1040   16.4310 O   0  0  0  0  0  0  0  0  0  0  0  0
   49.0070   47.6810   16.7490 O   0  0  0  0  0  0  0  0  0  0  0  0
  1  6  2  0  0  0  0
  2  3  2  0  0  0  0
  2  1  1  0  0  0  0
  3  4  1  0  0  0  0
  4  7  1  0  0  0  0
  4  5  2  0  0  0  0
  6  5  1  0  0  0  0
  7  9  1  0  0  0  0
  8  7  1  0  0  0  0
  9 10  2  0  0  0  0
 11  9  1  1  0  0  0
 11 18  1  0  0  0  0
 11 12  1  0  0  0  0
 12 13  1  0  0  0  0
 13 16  1  0  0  0  0
 13 14  1  0  0  0  0
 15 13  1  0  0  0  0
 17 16  1  0  0  0  0
 18 17  1  0  0  0  0
 19  1  1  0  0  0  0
 19 20  1  0  0  0  0
 22 19  1  0  0  0  0
 22 21  1  0  0  0  0
 23 22  2  0  0  0  0
 24 22  2  0  0  0  0
M  END
>  <MODEL>
5

>  <REMARK>
  Name = ZINC43708984
                            x       y       z     vdW  Elec       q    Type
                         _______ _______ _______ _____ _____    ______ ____

>  <TORSDO>
F 4

>  <minimizedAffinity>
-6.8590949549436111

$$$$
ZINC43708984
 OpenBabel10211214293D

 24 25  0  0  1  0  0  0  0  0999 V2000
   51.6370   54.8670   19.4850 C   0  0  0  0  0  0  0  0  0  0  0  0
   52.4220   53.7950   19.0820 C   0  0  0  0  0  0  0  0  0  0  0  0
   51.8320   52.6810   18.5210 C   0  0  0  0  0  0  0  0  0  0  0  0
   50.4530   52.6310   18.3610 C   0  0  0  0  0  0  0  0  0  0  0  0
   49.6680   53.7030   18.7640 C   0  0  0  0  0  0  0  0  0  0  0  0
   50.2580   54.8150   19.3300 C   0  0  0  0  0  0  0  0  0  0  0  0
   49.8540   51.4990   17.7920 N   0  0  0  0  0  0  0  0  0  0  0  0
   49.5230   51.5310   16.8800 H   0  0  0  0  0  0  0  0  0  0  0  0
   49.7370   50.3650   18.5110 C   0  0  0  0  0  0  0  0  0  0  0  0
   50.0620   50.3510   19.6790 O   0  0  0  0  0  0  0  0  0  0  0  0
   49.1990   49.1140   17.8630 C   0  0  1  0  0  0  0  0  0  0  0  0
   47.7520   48.8900   18.3080 C   0  0  0  0  0  0  0  0  0  0  0  0
   47.2110   47.7040   17.6300 N   0  0  0  0  0  0  0  0  0  0  0  0
   46.2570   47.5540   17.9230 H   0  0  0  0  0  0  0  0  0  0  0  0
   47.7680   46.8970   17.8710 H   0  0  0  0  0  0  0  0  0  0  0  0
   47.2520   47.9110   16.1760 C   0  0  0  0  0  0  0  0  0  0  0  0
   48.7000   48.1370   15.7350 C   0  0  0  0  0  0  0  0  0  0  0  0
   49.2390   49.2580   16.4410 O   0  0  0  0  0  0  0  0  0  0  0  0
   52.2360   55.9980   20.0520 N   0  0  0  0  0  0  0  0  0  0  0  0
   52.7060   56.6320   19.4890 H   0  0  0  0  0  0  0  0  0  0  0  0
   50.6150   57.2090   21.9180 C   0  0  0  0  0  0  0  0  0  0  0  0
   52.1390   56.2540   21.6850 S   0  0  0  0  0  0  0  0  0  0  0  0
   51.9940   54.9570   22.2480 O   0  0  0  0  0  0  0  0  0  0  0  0
   53.2710   57.0550   21.9940 O   0  0  0  0  0  0  0  0  0  0  0  0
  1 19  1  0  0  0  0
  2  1  2  0  0  0  0
  3  2  1  0  0  0  0
  4  3  2  0  0  0  0
  4  5  1  0  0  0  0
  5  6  2  0  0  0  0
  6  1  1  0  0  0  0
  7  4  1  0  0  0  0
  7  9  1  0  0  0  0
  8  7  1  0  0  0  0
  9 10  2  0  0  0  0
 11 12  1  0  0  0  0
 11  9  1  6  0  0  0
 13 15  1  0  0  0  0
 13 14  1  0  0  0  0
 13 12  1  0  0  0  0
 16 13  1  0  0  0  0
 17 16  1  0  0  0  0
 17 18  1  0  0  0  0
 18 11  1  0  0  0  0
 19 22  1  0  0  0  0
 20 19  1  0  0  0  0
 22 21  1  0  0  0  0
 22 24  2  0  0  0  0
 22 23  2  0  0  0  0
M  END
>  <MODEL>
6

>  <REMARK>
  Name = ZINC43708984
                            x       y       z     vdW  Elec       q    Type
                         _______ _______ _______ _____ _____    ______ ____

>  <TORSDO>
F 4

>  <minimizedAffinity>
-6.825329038751792

$$$$
ZINC43708984
 OpenBabel10211214293D

 24 25  0  0  1  0  0  0  0  0999 V2000
   48.0630   51.0260   17.0740 C   0  0  0  0  0  0  0  0  0  0  0  0
   49.1360   50.7820   17.9200 C   0  0  0  0  0  0  0  0  0  0  0  0
   49.8880   51.8350   18.4010 C   0  0  0  0  0  0  0  0  0  0  0  0
   49.5720   53.1380   18.0370 C   0  0  0  0  0  0  0  0  0  0  0  0
   48.4990   53.3820   17.1910 C   0  0  0  0  0  0  0  0  0  0  0  0
   47.7500   52.3280   16.7050 C   0  0  0  0  0  0  0  0  0  0  0  0
   50.3360   54.2060   18.5250 N   0  0  0  0  0  0  0  0  0  0  0  0
   51.1980   54.4090   18.1260 H   0  0  0  0  0  0  0  0  0  0  0  0
   49.8760   54.9510   19.5490 C   0  0  0  0  0  0  0  0  0  0  0  0
   48.8470   54.6410   20.1110 O   0  0  0  0  0  0  0  0  0  0  0  0
   50.6420   56.1700   19.9980 C   0  0  1  0  0  0  0  0  0  0  0  0
   50.2380   56.5270   21.4310 C   0  0  0  0  0  0  0  0  0  0  0  0
   51.0270   57.6790   21.8880 N   0  0  0  0  0  0  0  0  0  0  0  0
   50.7610   57.9170   22.8310 H   0  0  0  0  0  0  0  0  0  0  0  0
   50.8540   58.4670   21.2810 H   0  0  0  0  0  0  0  0  0  0  0  0
   52.4560   57.3380   21.8520 C   0  0  0  0  0  0  0  0  0  0  0  0
   52.8560   56.9780   20.4180 C   0  0  0  0  0  0  0  0  0  0  0  0
   52.0450   55.8940   19.9590 O   0  0  0  0  0  0  0  0  0  0  0  0
   47.2990   49.9580   16.5870 N   0  0  0  0  0  0  0  0  0  0  0  0
   46.4410   49.7540   16.9890 H   0  0  0  0  0  0  0  0  0  0  0  0
   46.3910   48.2290   14.6480 C   0  0  0  0  0  0  0  0  0  0  0  0
   47.8610   49.0470   15.3250 S   0  0  0  0  0  0  0  0  0  0  0  0
   48.3680   49.9920   14.3920 O   0  0  0  0  0  0  0  0  0  0  0  0
   48.7220   48.0890   15.9250 O   0  0  0  0  0  0  0  0  0  0  0  0
  1  2  1  0  0  0  0
  2  3  2  0  0  0  0
  4  3  1  0  0  0  0
  4  7  1  0  0  0  0
  5  4  2  0  0  0  0
  6  1  2  0  0  0  0
  6  5  1  0  0  0  0
  7  9  1  0  0  0  0
  8  7  1  0  0  0  0
  9 10  2  0  0  0  0
 11  9  1  1  0  0  0
 11 12  1  0  0  0  0
 12 13  1  0  0  0  0
 13 14  1  0  0  0  0
 15 13  1  0  0  0  0
 16 13  1  0  0  0  0
 17 16  1  0  0  0  0
 18 11  1  0  0  0  0
 18 17  1  0  0  0  0
 19 20  1  0  0  0  0
 19  1  1  0  0  0  0
 21 22  1  0  0  0  0
 22 24  2  0  0  0  0
 22 19  1  0  0  0  0
 23 22  2  0  0  0  0
M  END
>  <MODEL>
7

>  <REMARK>
  Name = ZINC43708984
                            x       y       z     vdW  Elec       q    Type
                         _______ _______ _______ _____ _____    ______ ____

>  <TORSDO>
F 4

>  <minimizedAffinity>
-6.8241390360527197

$$$$
ZINC43708984
 OpenBabel10211214293D

 24 25  0  0  1  0  0  0  0  0999 V2000
   45.1360   48.0000   15.6710 C   0  0  0  0  0  0  0  0  0  0  0  0
   44.8990   48.3440   16.9950 C   0  0  0  0  0  0  0  0  0  0  0  0
   45.9590   48.6300   17.8320 C   0  0  0  0  0  0  0  0  0  0  0  0
   47.2610   48.5720   17.3510 C   0  0  0  0  0  0  0  0  0  0  0  0
   47.4970   48.2280   16.0270 C   0  0  0  0  0  0  0  0  0  0  0  0
   46.4380   47.9360   15.1910 C   0  0  0  0  0  0  0  0  0  0  0  0
   48.3360   48.8620   18.2020 N   0  0  0  0  0  0  0  0  0  0  0  0
   48.7020   48.1690   18.7750 H   0  0  0  0  0  0  0  0  0  0  0  0
   48.8600   50.1030   18.2260 C   0  0  0  0  0  0  0  0  0  0  0  0
   48.3440   50.9930   17.5830 O   0  0  0  0  0  0  0  0  0  0  0  0
   50.0880   50.3860   19.0540 C   0  0  1  0  0  0  0  0  0  0  0  0
   50.4510   49.1430   19.8710 C   0  0  0  0  0  0  0  0  0  0  0  0
   51.6810   49.4020   20.6320 N   0  0  0  0  0  0  0  0  0  0  0  0
   51.9220   48.5850   21.1720 H   0  0  0  0  0  0  0  0  0  0  0  0
   51.5330   50.1840   21.2530 H   0  0  0  0  0  0  0  0  0  0  0  0
   52.7740   49.7150   19.7020 C   0  0  0  0  0  0  0  0  0  0  0  0
   52.4070   50.9570   18.8840 C   0  0  0  0  0  0  0  0  0  0  0  0
   51.1790   50.7190   18.1910 O   0  0  0  0  0  0  0  0  0  0  0  0
   44.0620   47.7110   14.8210 N   0  0  0  0  0  0  0  0  0  0  0  0
   43.6060   48.4290   14.3550 H   0  0  0  0  0  0  0  0  0  0  0  0
   44.2570   45.6510   13.0050 C   0  0  0  0  0  0  0  0  0  0  0  0
   43.5720   46.1430   14.6110 S   0  0  0  0  0  0  0  0  0  0  0  0
   44.2080   45.4210   15.6560 O   0  0  0  0  0  0  0  0  0  0  0  0
   42.1540   46.2140   14.5370 O   0  0  0  0  0  0  0  0  0  0  0  0
  1  2  1  0  0  0  0
  2  3  2  0  0  0  0
  4  3  1  0  0  0  0
  4  7  1  0  0  0  0
  5  4  2  0  0  0  0
  6  1  2  0  0  0  0
  6  5  1  0  0  0  0
  7  9  1  0  0  0  0
  7  8  1  0  0  0  0
 10  9  2  0  0  0  0
 11  9  1  6  0  0  0
 11 12  1  0  0  0  0
 12 13  1  0  0  0  0
 13 14  1  0  0  0  0
 13 15  1  0  0  0  0
 16 13  1  0  0  0  0
 17 16  1  0  0  0  0
 18 17  1  0  0  0  0
 18 11  1  0  0  0  0
 19  1  1  0  0  0  0
 20 19  1  0  0  0  0
 21 22  1  0  0  0  0
 22 19  1  0  0  0  0
 22 23  2  0  0  0  0
 24 22  2  0  0  0  0
M  END
>  <MODEL>
8

>  <REMARK>
  Name = ZINC43708984
                            x       y       z     vdW  Elec       q    Type
                         _______ _______ _______ _____ _____    ______ ____

>  <TORSDO>
F 4

>  <minimizedAffinity>
-6.7150421181151128

$$$$
ZINC43708984
 OpenBabel10211214293D

 24 25  0  0  1  0  0  0  0  0999 V2000
   51.3560   55.3740   19.6500 C   0  0  0  0  0  0  0  0  0  0  0  0
   49.9950   55.1420   19.7930 C   0  0  0  0  0  0  0  0  0  0  0  0
   49.4620   53.9210   19.4310 C   0  0  0  0  0  0  0  0  0  0  0  0
   50.2870   52.9260   18.9220 C   0  0  0  0  0  0  0  0  0  0  0  0
   51.6480   53.1580   18.7800 C   0  0  0  0  0  0  0  0  0  0  0  0
   52.1800   54.3820   19.1370 C   0  0  0  0  0  0  0  0  0  0  0  0
   49.7450   51.6870   18.5540 N   0  0  0  0  0  0  0  0  0  0  0  0
   49.9000   50.9060   19.1080 H   0  0  0  0  0  0  0  0  0  0  0  0
   49.0100   51.5800   17.4300 C   0  0  0  0  0  0  0  0  0  0  0  0
   48.8940   52.5330   16.6880 O   0  0  0  0  0  0  0  0  0  0  0  0
   48.3310   50.2770   17.0950 C   0  0  1  0  0  0  0  0  0  0  0  0
   49.2010   49.4850   16.1150 C   0  0  0  0  0  0  0  0  0  0  0  0
   48.5650   48.1900   15.8350 N   0  0  0  0  0  0  0  0  0  0  0  0
   49.1370   47.6680   15.1880 H   0  0  0  0  0  0  0  0  0  0  0  0
   47.6540   48.3440   15.4300 H   0  0  0  0  0  0  0  0  0  0  0  0
   48.4240   47.4350   17.0870 C   0  0  0  0  0  0  0  0  0  0  0  0
   47.5560   48.2300   18.0660 C   0  0  0  0  0  0  0  0  0  0  0  0
   48.1500   49.5120   18.2890 O   0  0  0  0  0  0  0  0  0  0  0  0
   51.8970   56.6120   20.0190 N   0  0  0  0  0  0  0  0  0  0  0  0
   52.2100   57.2260   19.3380 H   0  0  0  0  0  0  0  0  0  0  0  0
   53.3620   58.2200   21.7050 C   0  0  0  0  0  0  0  0  0  0  0  0
   52.0000   57.0250   21.6190 S   0  0  0  0  0  0  0  0  0  0  0  0
   50.7670   57.6680   21.9080 O   0  0  0  0  0  0  0  0  0  0  0  0
   52.3630   55.8220   22.2810 O   0  0  0  0  0  0  0  0  0  0  0  0
  1  2  1  0  0  0  0
  1 19  1  0  0  0  0
  3  2  2  0  0  0  0
  4  3  1  0  0  0  0
  5  4  2  0  0  0  0
  5  6  1  0  0  0  0
  6  1  2  0  0  0  0
  7  4  1  0  0  0  0
  7  8  1  0  0  0  0
  9  7  1  0  0  0  0
 10  9  2  0  0  0  0
 11  9  1  1  0  0  0
 11 18  1  0  0  0  0
 12 11  1  0  0  0  0
 13 12  1  0  0  0  0
 13 16  1  0  0  0  0
 14 13  1  0  0  0  0
 15 13  1  0  0  0  0
 16 17  1  0  0  0  0
 17 18  1  0  0  0  0
 19 22  1  0  0  0  0
 20 19  1  0  0  0  0
 22 21  1  0  0  0  0
 22 23  2  0  0  0  0
 22 24  2  0  0  0  0
M  END
>  <MODEL>
9

>  <REMARK>
  Name = ZINC43708984
                            x       y       z     vdW  Elec       q    Type
                         _______ _______ _______ _____ _____    ______ ____

>  <TORSDO>
F 4

>  <minimizedAffinity>
-6.6822749227601985

$$$$
ZINC41716876
 OpenBabel10211214313D

 28 29  0  0  0  0  0  0  0  0999 V2000
   48.8560   51.9420   17.3170 N   0  0  0  0  0  0  0  0  0  0  0  0
   48.7510   52.8330   16.9490 H   0  0  0  0  0  0  0  0  0  0  0  0
   49.6780   51.7410   18.3660 C   0  0  0  0  0  0  0  0  0  0  0  0
   49.8840   50.6120   18.7690 O   0  0  0  0  0  0  0  0  0  0  0  0
   46.2230   49.4460   16.7070 C   0  0  0  0  0  0  0  0  0  0  0  0
   46.7790   48.7350   15.6520 C   0  0  0  0  0  0  0  0  0  0  0  0
   48.0180   49.0900   15.1540 C   0  0  0  0  0  0  0  0  0  0  0  0
   48.7080   50.1530   15.7040 C   0  0  0  0  0  0  0  0  0  0  0  0
   48.1570   50.8680   16.7600 C   0  0  0  0  0  0  0  0  0  0  0  0
   46.9100   50.5170   17.2580 C   0  0  0  0  0  0  0  0  0  0  0  0
   45.0050   49.0960   17.1970 O   0  0  0  0  0  0  0  0  0  0  0  0
   44.8050   47.7160   17.5120 C   0  0  0  0  0  0  0  0  0  0  0  0
   44.5340   46.9600   19.8180 C   0  0  0  0  0  0  0  0  0  0  0  0
   45.3330   47.4350   18.8960 C   0  0  0  0  0  0  0  0  0  0  0  0
   50.3230   52.8870   19.0250 C   0  0  0  0  0  0  0  0  0  0  0  0
   49.6280   53.6260   19.9580 C   0  0  0  0  0  0  0  0  0  0  0  0
   50.1990   54.8690   20.4810 C   0  0  0  0  0  0  0  0  0  0  0  0
   49.8990   56.0940   19.8690 C   0  0  0  0  0  0  0  0  0  0  0  0
   50.4380   57.2600   20.3640 C   0  0  0  0  0  0  0  0  0  0  0  0
   51.2810   57.2270   21.4680 C   0  0  0  0  0  0  0  0  0  0  0  0
   51.5850   56.0120   22.0830 C   0  0  0  0  0  0  0  0  0  0  0  0
   51.0450   54.8380   21.6000 C   0  0  0  0  0  0  0  0  0  0  0  0
   51.8080   58.3810   21.9510 O   0  0  0  0  0  0  0  0  0  0  0  0
   52.1810   58.9590   21.2720 H   0  0  0  0  0  0  0  0  0  0  0  0
   52.4100   55.9860   23.1630 O   0  0  0  0  0  0  0  0  0  0  0  0
   53.3510   56.0330   22.9420 H   0  0  0  0  0  0  0  0  0  0  0  0
   51.6720   53.2340   18.6980 C   0  0  0  0  0  0  0  0  0  0  0  0
   52.7440   53.5100   18.4390 N   0  0  0  0  0  0  0  0  0  0  0  0
  1  3  1  0  0  0  0
  2  1  1  0  0  0  0
  3  4  2  0  0  0  0
  3 15  1  0  0  0  0
  5 11  1  0  0  0  0
  5 10  2  0  0  0  0
  6  5  1  0  0  0  0
  7  6  2  0  0  0  0
  7  8  1  0  0  0  0
  8  9  2  0  0  0  0
  9 10  1  0  0  0  0
  9  1  1  0  0  0  0
 11 12  1  0  0  0  0
 12 14  1  0  0  0  0
 14 13  2  0  0  0  0
 15 16  2  0  0  0  0
 16 17  1  0  0  0  0
 17 22  2  0  0  0  0
 18 19  2  0  0  0  0
 18 17  1  0  0  0  0
 19 20  1  0  0  0  0
 20 23  1  0  0  0  0
 20 21  2  0  0  0  0
 21 25  1  0  0  0  0
 22 21  1  0  0  0  0
 24 23  1  0  0  0  0
 26 25  1  0  0  0  0
 27 15  1  0  0  0  0
 28 27  3  0  0  0  0
M  END
>  <MODEL>
1

>  <REMARK>
  Name = ZINC41716876
                            x       y       z     vdW  Elec       q    Type
                         _______ _______ _______ _____ _____    ______ ____

>  <TORSDO>
F 9

>  <minimizedAffinity>
-8.4186991987210629

$$$$
ZINC41716876
 OpenBabel10211214313D

 28 29  0  0  0  0  0  0  0  0999 V2000
   49.9700   52.0420   19.0390 N   0  0  0  0  0  0  0  0  0  0  0  0
   50.1770   51.2430   19.5470 H   0  0  0  0  0  0  0  0  0  0  0  0
   49.1230   51.9730   17.9920 C   0  0  0  0  0  0  0  0  0  0  0  0
   48.9350   52.9530   17.2960 O   0  0  0  0  0  0  0  0  0  0  0  0
   50.4720   55.3270   20.6160 C   0  0  0  0  0  0  0  0  0  0  0  0
   51.7000   55.6880   20.0800 C   0  0  0  0  0  0  0  0  0  0  0  0
   52.3500   54.8400   19.2040 C   0  0  0  0  0  0  0  0  0  0  0  0
   51.7780   53.6310   18.8570 C   0  0  0  0  0  0  0  0  0  0  0  0
   50.5490   53.2650   19.3900 C   0  0  0  0  0  0  0  0  0  0  0  0
   49.8980   54.1130   20.2750 C   0  0  0  0  0  0  0  0  0  0  0  0
   49.8340   56.1630   21.4770 O   0  0  0  0  0  0  0  0  0  0  0  0
   49.8310   57.5540   21.1490 C   0  0  0  0  0  0  0  0  0  0  0  0
   47.4710   57.8180   20.5760 C   0  0  0  0  0  0  0  0  0  0  0  0
   48.4550   58.1230   21.3850 C   0  0  0  0  0  0  0  0  0  0  0  0
   48.4250   50.7130   17.6930 C   0  0  0  0  0  0  0  0  0  0  0  0
   47.2890   50.7240   16.9120 C   0  0  0  0  0  0  0  0  0  0  0  0
   46.4920   49.5050   16.7610 C   0  0  0  0  0  0  0  0  0  0  0  0
   46.6790   48.6740   15.6470 C   0  0  0  0  0  0  0  0  0  0  0  0
   45.9270   47.5300   15.5100 C   0  0  0  0  0  0  0  0  0  0  0  0
   44.9820   47.1940   16.4710 C   0  0  0  0  0  0  0  0  0  0  0  0
   44.7890   48.0150   17.5830 C   0  0  0  0  0  0  0  0  0  0  0  0
   45.5420   49.1610   17.7350 C   0  0  0  0  0  0  0  0  0  0  0  0
   44.2450   46.0630   16.3300 O   0  0  0  0  0  0  0  0  0  0  0  0
   43.9840   45.8740   15.4190 H   0  0  0  0  0  0  0  0  0  0  0  0
   43.8630   47.6810   18.5210 O   0  0  0  0  0  0  0  0  0  0  0  0
   43.9910   48.1200   19.3740 H   0  0  0  0  0  0  0  0  0  0  0  0
   48.9230   49.4770   18.2130 C   0  0  0  0  0  0  0  0  0  0  0  0
   49.3200   48.4950   18.6260 N   0  0  0  0  0  0  0  0  0  0  0  0
  1  9  1  0  0  0  0
  1  2  1  0  0  0  0
  3  1  1  0  0  0  0
  4  3  2  0  0  0  0
  5 11  1  0  0  0  0
  6  5  2  0  0  0  0
  7  6  1  0  0  0  0
  8  7  2  0  0  0  0
  8  9  1  0  0  0  0
  9 10  2  0  0  0  0
 10  5  1  0  0  0  0
 12 14  1  0  0  0  0
 12 11  1  0  0  0  0
 13 14  2  0  0  0  0
 15  3  1  0  0  0  0
 15 27  1  0  0  0  0
 16 15  2  0  0  0  0
 17 16  1  0  0  0  0
 17 22  2  0  0  0  0
 18 17  1  0  0  0  0
 19 18  2  0  0  0  0
 19 20  1  0  0  0  0
 20 21  2  0  0  0  0
 21 22  1  0  0  0  0
 21 25  1  0  0  0  0
 23 20  1  0  0  0  0
 24 23  1  0  0  0  0
 25 26  1  0  0  0  0
 27 28  3  0  0  0  0
M  END
>  <MODEL>
2

>  <REMARK>
  Name = ZINC41716876
                            x       y       z     vdW  Elec       q    Type
                         _______ _______ _______ _____ _____    ______ ____

>  <TORSDO>
F 9

>  <minimizedAffinity>
-8.3339072415569113

$$$$
ZINC41716876
 OpenBabel10211214313D

 28 29  0  0  0  0  0  0  0  0999 V2000
   49.4840   52.0260   17.5240 N   0  0  0  0  0  0  0  0  0  0  0  0
   49.4730   52.9370   17.1910 H   0  0  0  0  0  0  0  0  0  0  0  0
   49.9650   51.7670   18.7570 C   0  0  0  0  0  0  0  0  0  0  0  0
   50.0660   50.6160   19.1390 O   0  0  0  0  0  0  0  0  0  0  0  0
   47.2260   49.4970   16.0970 C   0  0  0  0  0  0  0  0  0  0  0  0
   48.0540   48.9160   15.1470 C   0  0  0  0  0  0  0  0  0  0  0  0
   49.3500   49.3680   14.9880 C   0  0  0  0  0  0  0  0  0  0  0  0
   49.8260   50.3990   15.7750 C   0  0  0  0  0  0  0  0  0  0  0  0
   49.0020   50.9840   16.7280 C   0  0  0  0  0  0  0  0  0  0  0  0
   47.6980   50.5350   16.8850 C   0  0  0  0  0  0  0  0  0  0  0  0
   45.9520   49.0510   16.2540 O   0  0  0  0  0  0  0  0  0  0  0  0
   45.3980   49.1180   17.5700 C   0  0  0  0  0  0  0  0  0  0  0  0
   44.9020   47.2920   19.1130 C   0  0  0  0  0  0  0  0  0  0  0  0
   45.7800   47.8800   18.3400 C   0  0  0  0  0  0  0  0  0  0  0  0
   50.3640   52.8740   19.6390 C   0  0  0  0  0  0  0  0  0  0  0  0
   50.2330   54.1780   19.2110 C   0  0  0  0  0  0  0  0  0  0  0  0
   50.7950   55.2700   20.0080 C   0  0  0  0  0  0  0  0  0  0  0  0
   49.9740   55.9980   20.8820 C   0  0  0  0  0  0  0  0  0  0  0  0
   50.5060   57.0240   21.6290 C   0  0  0  0  0  0  0  0  0  0  0  0
   51.8540   57.3430   21.5190 C   0  0  0  0  0  0  0  0  0  0  0  0
   52.6780   56.6240   20.6520 C   0  0  0  0  0  0  0  0  0  0  0  0
   52.1570   55.5890   19.9030 C   0  0  0  0  0  0  0  0  0  0  0  0
   52.3720   58.3550   22.2600 O   0  0  0  0  0  0  0  0  0  0  0  0
   51.9540   59.2130   22.1040 H   0  0  0  0  0  0  0  0  0  0  0  0
   53.9960   56.9400   20.5500 O   0  0  0  0  0  0  0  0  0  0  0  0
   54.4270   57.1140   21.3980 H   0  0  0  0  0  0  0  0  0  0  0  0
   50.8900   52.5980   20.9410 C   0  0  0  0  0  0  0  0  0  0  0  0
   51.3080   52.3780   21.9750 N   0  0  0  0  0  0  0  0  0  0  0  0
  1  3  1  0  0  0  0
  2  1  1  0  0  0  0
  3  4  2  0  0  0  0
  3 15  1  0  0  0  0
  5 11  1  0  0  0  0
  5 10  2  0  0  0  0
  6  5  1  0  0  0  0
  7  6  2  0  0  0  0
  7  8  1  0  0  0  0
  8  9  2  0  0  0  0
  9 10  1  0  0  0  0
  9  1  1  0  0  0  0
 11 12  1  0  0  0  0
 12 14  1  0  0  0  0
 14 13  2  0  0  0  0
 15 27  1  0  0  0  0
 16 15  2  0  0  0  0
 16 17  1  0  0  0  0
 17 18  1  0  0  0  0
 18 19  2  0  0  0  0
 20 19  1  0  0  0  0
 20 23  1  0  0  0  0
 21 20  2  0  0  0  0
 22 17  2  0  0  0  0
 22 21  1  0  0  0  0
 24 23  1  0  0  0  0
 25 21  1  0  0  0  0
 25 26  1  0  0  0  0
 27 28  3  0  0  0  0
M  END
>  <MODEL>
3

>  <REMARK>
  Name = ZINC41716876
                            x       y       z     vdW  Elec       q    Type
                         _______ _______ _______ _____ _____    ______ ____

>  <TORSDO>
F 9

>  <minimizedAffinity>
-8.1899878677167859

$$$$
ZINC41716876
 OpenBabel10211214313D

 28 29  0  0  0  0  0  0  0  0999 V2000
   48.7720   55.3130   19.1070 N   0  0  0  0  0  0  0  0  0  0  0  0
   48.1380   54.6570   19.4360 H   0  0  0  0  0  0  0  0  0  0  0  0
   50.0950   55.0660   19.1830 C   0  0  0  0  0  0  0  0  0  0  0  0
   50.8930   55.9260   18.8580 O   0  0  0  0  0  0  0  0  0  0  0  0
   47.5960   58.7870   18.8240 C   0  0  0  0  0  0  0  0  0  0  0  0
   47.4050   58.8860   17.4530 C   0  0  0  0  0  0  0  0  0  0  0  0
   47.6680   57.8020   16.6370 C   0  0  0  0  0  0  0  0  0  0  0  0
   48.1210   56.6170   17.1830 C   0  0  0  0  0  0  0  0  0  0  0  0
   48.3140   56.5130   18.5550 C   0  0  0  0  0  0  0  0  0  0  0  0
   48.0570   57.6020   19.3750 C   0  0  0  0  0  0  0  0  0  0  0  0
   47.3370   59.8530   19.6260 O   0  0  0  0  0  0  0  0  0  0  0  0
   46.2390   60.6910   19.2550 C   0  0  0  0  0  0  0  0  0  0  0  0
   45.5690   62.9990   19.6930 C   0  0  0  0  0  0  0  0  0  0  0  0
   46.5340   62.1130   19.6600 C   0  0  0  0  0  0  0  0  0  0  0  0
   50.5740   53.7590   19.6560 C   0  0  0  0  0  0  0  0  0  0  0  0
   50.6170   52.6860   18.7910 C   0  0  0  0  0  0  0  0  0  0  0  0
   50.9180   51.3460   19.2990 C   0  0  0  0  0  0  0  0  0  0  0  0
   49.8780   50.4460   19.5720 C   0  0  0  0  0  0  0  0  0  0  0  0
   50.1670   49.1880   20.0500 C   0  0  0  0  0  0  0  0  0  0  0  0
   51.4850   48.8070   20.2640 C   0  0  0  0  0  0  0  0  0  0  0  0
   52.5260   49.6960   19.9950 C   0  0  0  0  0  0  0  0  0  0  0  0
   52.2500   50.9580   19.5090 C   0  0  0  0  0  0  0  0  0  0  0  0
   51.7620   47.5640   20.7340 O   0  0  0  0  0  0  0  0  0  0  0  0
   52.6510   47.2500   20.5200 H   0  0  0  0  0  0  0  0  0  0  0  0
   53.8150   49.3170   20.2060 O   0  0  0  0  0  0  0  0  0  0  0  0
   54.1460   48.6730   19.5640 H   0  0  0  0  0  0  0  0  0  0  0  0
   50.9940   53.5990   21.0150 C   0  0  0  0  0  0  0  0  0  0  0  0
   51.3290   53.4720   22.0940 N   0  0  0  0  0  0  0  0  0  0  0  0
  1  3  1  0  0  0  0
  1  2  1  0  0  0  0
  3 15  1  0  0  0  0
  4  3  2  0  0  0  0
  5 10  1  0  0  0  0
  5 11  1  0  0  0  0
  6  5  2  0  0  0  0
  7  8  2  0  0  0  0
  7  6  1  0  0  0  0
  8  9  1  0  0  0  0
  9  1  1  0  0  0  0
  9 10  2  0  0  0  0
 12 11  1  0  0  0  0
 12 14  1  0  0  0  0
 14 13  2  0  0  0  0
 15 27  1  0  0  0  0
 16 17  1  0  0  0  0
 16 15  2  0  0  0  0
 17 22  2  0  0  0  0
 17 18  1  0  0  0  0
 18 19  2  0  0  0  0
 19 20  1  0  0  0  0
 20 23  1  0  0  0  0
 21 25  1  0  0  0  0
 21 20  2  0  0  0  0
 22 21  1  0  0  0  0
 24 23  1  0  0  0  0
 26 25  1  0  0  0  0
 27 28  3  0  0  0  0
M  END
>  <MODEL>
4

>  <REMARK>
  Name = ZINC41716876
                            x       y       z     vdW  Elec       q    Type
                         _______ _______ _______ _____ _____    ______ ____

>  <TORSDO>
F 9

>  <minimizedAffinity>
-7.9358525362701471

$$$$
ZINC41716876
 OpenBabel10211214313D

 28 29  0  0  0  0  0  0  0  0999 V2000
   48.9550   54.4160   19.6890 N   0  0  0  0  0  0  0  0  0  0  0  0
   48.9380   53.6360   20.2650 H   0  0  0  0  0  0  0  0  0  0  0  0
   48.9640   54.2640   18.3500 C   0  0  0  0  0  0  0  0  0  0  0  0
   49.0810   55.2370   17.6290 O   0  0  0  0  0  0  0  0  0  0  0  0
   50.1400   57.4520   21.3960 C   0  0  0  0  0  0  0  0  0  0  0  0
   48.9950   58.2360   21.3560 C   0  0  0  0  0  0  0  0  0  0  0  0
   47.8440   57.7520   20.7650 C   0  0  0  0  0  0  0  0  0  0  0  0
   47.8290   56.4860   20.2110 C   0  0  0  0  0  0  0  0  0  0  0  0
   48.9720   55.6970   20.2480 C   0  0  0  0  0  0  0  0  0  0  0  0
   50.1300   56.1840   20.8370 C   0  0  0  0  0  0  0  0  0  0  0  0
   51.2710   57.9280   21.9790 O   0  0  0  0  0  0  0  0  0  0  0  0
   52.4130   57.0680   21.9780 C   0  0  0  0  0  0  0  0  0  0  0  0
   54.2140   58.0710   20.6680 C   0  0  0  0  0  0  0  0  0  0  0  0
   53.6660   57.8960   21.8450 C   0  0  0  0  0  0  0  0  0  0  0  0
   48.8300   52.9230   17.7600 C   0  0  0  0  0  0  0  0  0  0  0  0
   47.7180   52.6090   17.0090 C   0  0  0  0  0  0  0  0  0  0  0  0
   47.4930   51.2290   16.5740 C   0  0  0  0  0  0  0  0  0  0  0  0
   48.1350   50.7390   15.4280 C   0  0  0  0  0  0  0  0  0  0  0  0
   47.9210   49.4410   15.0230 C   0  0  0  0  0  0  0  0  0  0  0  0
   47.0690   48.6140   15.7460 C   0  0  0  0  0  0  0  0  0  0  0  0
   46.4260   49.0940   16.8870 C   0  0  0  0  0  0  0  0  0  0  0  0
   46.6390   50.3910   17.3060 C   0  0  0  0  0  0  0  0  0  0  0  0
   46.8640   47.3350   15.3410 O   0  0  0  0  0  0  0  0  0  0  0  0
   47.0230   47.1890   14.3990 H   0  0  0  0  0  0  0  0  0  0  0  0
   45.5940   48.2810   17.5900 O   0  0  0  0  0  0  0  0  0  0  0  0
   44.6570   48.5060   17.5040 H   0  0  0  0  0  0  0  0  0  0  0  0
   49.8530   51.9440   17.9680 C   0  0  0  0  0  0  0  0  0  0  0  0
   50.6660   51.1670   18.1320 N   0  0  0  0  0  0  0  0  0  0  0  0
  1  9  1  0  0  0  0
  1  2  1  0  0  0  0
  3  1  1  0  0  0  0
  4  3  2  0  0  0  0
  5 11  1  0  0  0  0
  6  5  1  0  0  0  0
  7  6  2  0  0  0  0
  8  9  2  0  0  0  0
  8  7  1  0  0  0  0
  9 10  1  0  0  0  0
 10  5  2  0  0  0  0
 12 11  1  0  0  0  0
 13 14  2  0  0  0  0
 14 12  1  0  0  0  0
 15 27  1  0  0  0  0
 15  3  1  0  0  0  0
 16 15  2  0  0  0  0
 17 16  1  0  0  0  0
 17 22  2  0  0  0  0
 18 17  1  0  0  0  0
 19 18  2  0  0  0  0
 19 20  1  0  0  0  0
 20 21  2  0  0  0  0
 21 22  1  0  0  0  0
 21 25  1  0  0  0  0
 23 20  1  0  0  0  0
 24 23  1  0  0  0  0
 26 25  1  0  0  0  0
 27 28  3  0  0  0  0
M  END
>  <MODEL>
5

>  <REMARK>
  Name = ZINC41716876
                            x       y       z     vdW  Elec       q    Type
                         _______ _______ _______ _____ _____    ______ ____

>  <TORSDO>
F 9

>  <minimizedAffinity>
-7.8288120113020749

$$$$
ZINC41716876
 OpenBabel10211214313D

 28 29  0  0  0  0  0  0  0  0999 V2000
   49.9100   53.3870   20.2470 N   0  0  0  0  0  0  0  0  0  0  0  0
   49.3720   52.7320   20.7180 H   0  0  0  0  0  0  0  0  0  0  0  0
   50.2680   53.1680   18.9660 C   0  0  0  0  0  0  0  0  0  0  0  0
   51.0200   53.9420   18.4040 O   0  0  0  0  0  0  0  0  0  0  0  0
   50.0130   56.8970   21.3430 C   0  0  0  0  0  0  0  0  0  0  0  0
   51.1200   56.8760   22.1800 C   0  0  0  0  0  0  0  0  0  0  0  0
   51.8200   55.7010   22.3730 C   0  0  0  0  0  0  0  0  0  0  0  0
   51.4200   54.5430   21.7330 C   0  0  0  0  0  0  0  0  0  0  0  0
   50.3130   54.5590   20.8950 C   0  0  0  0  0  0  0  0  0  0  0  0
   49.6050   55.7370   20.7040 C   0  0  0  0  0  0  0  0  0  0  0  0
   49.3250   58.0540   21.1540 O   0  0  0  0  0  0  0  0  0  0  0  0
   47.9160   57.9430   20.9390 C   0  0  0  0  0  0  0  0  0  0  0  0
   47.6950   58.4490   18.5600 C   0  0  0  0  0  0  0  0  0  0  0  0
   47.5100   58.8390   19.7960 C   0  0  0  0  0  0  0  0  0  0  0  0
   49.7490   51.9930   18.2480 C   0  0  0  0  0  0  0  0  0  0  0  0
   48.9330   52.1630   17.1500 C   0  0  0  0  0  0  0  0  0  0  0  0
   48.2710   51.0060   16.5440 C   0  0  0  0  0  0  0  0  0  0  0  0
   48.8370   50.3750   15.4270 C   0  0  0  0  0  0  0  0  0  0  0  0
   48.2100   49.2880   14.8610 C   0  0  0  0  0  0  0  0  0  0  0  0
   47.0170   48.8140   15.3930 C   0  0  0  0  0  0  0  0  0  0  0  0
   46.4470   49.4360   16.5040 C   0  0  0  0  0  0  0  0  0  0  0  0
   47.0690   50.5220   17.0830 C   0  0  0  0  0  0  0  0  0  0  0  0
   46.4050   47.7410   14.8300 O   0  0  0  0  0  0  0  0  0  0  0  0
   46.3930   46.9540   15.3910 H   0  0  0  0  0  0  0  0  0  0  0  0
   45.2790   48.9670   17.0190 O   0  0  0  0  0  0  0  0  0  0  0  0
   44.7030   48.5420   16.3680 H   0  0  0  0  0  0  0  0  0  0  0  0
   50.0900   50.6750   18.6890 C   0  0  0  0  0  0  0  0  0  0  0  0
   50.3610   49.6280   19.0390 N   0  0  0  0  0  0  0  0  0  0  0  0
  1  2  1  0  0  0  0
  1  9  1  0  0  0  0
  3  1  1  0  0  0  0
  4  3  2  0  0  0  0
  5  6  2  0  0  0  0
  6  7  1  0  0  0  0
  8  7  2  0  0  0  0
  9  8  1  0  0  0  0
 10  9  2  0  0  0  0
 10  5  1  0  0  0  0
 11  5  1  0  0  0  0
 12 11  1  0  0  0  0
 13 14  2  0  0  0  0
 14 12  1  0  0  0  0
 15 27  1  0  0  0  0
 15  3  1  0  0  0  0
 16 15  2  0  0  0  0
 17 22  1  0  0  0  0
 17 16  1  0  0  0  0
 18 17  2  0  0  0  0
 19 20  2  0  0  0  0
 19 18  1  0  0  0  0
 20 21  1  0  0  0  0
 21 25  1  0  0  0  0
 21 22  2  0  0  0  0
 23 24  1  0  0  0  0
 23 20  1  0  0  0  0
 26 25  1  0  0  0  0
 27 28  3  0  0  0  0
M  END
>  <MODEL>
6

>  <REMARK>
  Name = ZINC41716876
                            x       y       z     vdW  Elec       q    Type
                         _______ _______ _______ _____ _____    ______ ____

>  <TORSDO>
F 9

>  <minimizedAffinity>
-7.7236721902511025

$$$$
ZINC41716876
 OpenBabel10211214313D

 28 29  0  0  0  0  0  0  0  0999 V2000
   48.8310   55.3650   19.3240 N   0  0  0  0  0  0  0  0  0  0  0  0
   48.2120   54.7270   19.7120 H   0  0  0  0  0  0  0  0  0  0  0  0
   50.1500   55.0870   19.2900 C   0  0  0  0  0  0  0  0  0  0  0  0
   50.9370   55.9240   18.8900 O   0  0  0  0  0  0  0  0  0  0  0  0
   47.6320   57.8830   16.9260 C   0  0  0  0  0  0  0  0  0  0  0  0
   47.4190   58.9650   17.7690 C   0  0  0  0  0  0  0  0  0  0  0  0
   47.6750   58.8490   19.1220 C   0  0  0  0  0  0  0  0  0  0  0  0
   48.1430   57.6570   19.6390 C   0  0  0  0  0  0  0  0  0  0  0  0
   48.3570   56.5710   18.8000 C   0  0  0  0  0  0  0  0  0  0  0  0
   48.0950   56.6830   17.4420 C   0  0  0  0  0  0  0  0  0  0  0  0
   47.3810   57.9990   15.5950 O   0  0  0  0  0  0  0  0  0  0  0  0
   47.6490   56.8520   14.7830 C   0  0  0  0  0  0  0  0  0  0  0  0
   46.6180   57.2650   12.6080 C   0  0  0  0  0  0  0  0  0  0  0  0
   46.5400   56.6790   13.7770 C   0  0  0  0  0  0  0  0  0  0  0  0
   50.6360   53.7720   19.7340 C   0  0  0  0  0  0  0  0  0  0  0  0
   50.6380   52.7070   18.8600 C   0  0  0  0  0  0  0  0  0  0  0  0
   50.9490   51.3600   19.3450 C   0  0  0  0  0  0  0  0  0  0  0  0
   49.9140   50.4570   19.6250 C   0  0  0  0  0  0  0  0  0  0  0  0
   50.2110   49.1930   20.0810 C   0  0  0  0  0  0  0  0  0  0  0  0
   51.5330   48.8090   20.2670 C   0  0  0  0  0  0  0  0  0  0  0  0
   52.5690   49.7020   19.9920 C   0  0  0  0  0  0  0  0  0  0  0  0
   52.2840   50.9690   19.5270 C   0  0  0  0  0  0  0  0  0  0  0  0
   51.8180   47.5600   20.7170 O   0  0  0  0  0  0  0  0  0  0  0  0
   51.0860   46.9340   20.6350 H   0  0  0  0  0  0  0  0  0  0  0  0
   53.8610   49.3200   20.1750 O   0  0  0  0  0  0  0  0  0  0  0  0
   54.3380   49.1370   19.3530 H   0  0  0  0  0  0  0  0  0  0  0  0
   51.1060   53.5980   21.0750 C   0  0  0  0  0  0  0  0  0  0  0  0
   51.4800   53.4600   22.1400 N   0  0  0  0  0  0  0  0  0  0  0  0
  1  2  1  0  0  0  0
  3  1  1  0  0  0  0
  3 15  1  0  0  0  0
  4  3  2  0  0  0  0
  5 10  2  0  0  0  0
  5  6  1  0  0  0  0
  6  7  2  0  0  0  0
  7  8  1  0  0  0  0
  9  1  1  0  0  0  0
  9  8  2  0  0  0  0
 10  9  1  0  0  0  0
 11  5  1  0  0  0  0
 12 11  1  0  0  0  0
 13 14  2  0  0  0  0
 14 12  1  0  0  0  0
 15 27  1  0  0  0  0
 16 17  1  0  0  0  0
 16 15  2  0  0  0  0
 17 22  2  0  0  0  0
 17 18  1  0  0  0  0
 18 19  2  0  0  0  0
 19 20  1  0  0  0  0
 20 23  1  0  0  0  0
 21 25  1  0  0  0  0
 21 20  2  0  0  0  0
 22 21  1  0  0  0  0
 24 23  1  0  0  0  0
 26 25  1  0  0  0  0
 27 28  3  0  0  0  0
M  END
>  <MODEL>
7

>  <REMARK>
  Name = ZINC41716876
                            x       y       z     vdW  Elec       q    Type
                         _______ _______ _______ _____ _____    ______ ____

>  <TORSDO>
F 9

>  <minimizedAffinity>
-7.493586551412597

$$$$
ZINC41716876
 OpenBabel10211214313D

 28 29  0  0  0  0  0  0  0  0999 V2000
   48.5320   57.2460   17.9140 N   0  0  0  0  0  0  0  0  0  0  0  0
   49.1660   57.0370   17.2110 H   0  0  0  0  0  0  0  0  0  0  0  0
   48.5300   56.5260   19.0540 C   0  0  0  0  0  0  0  0  0  0  0  0
   47.6750   56.7250   19.8970 O   0  0  0  0  0  0  0  0  0  0  0  0
   46.6970   60.3840   18.4780 C   0  0  0  0  0  0  0  0  0  0  0  0
   45.8120   60.3640   17.4090 C   0  0  0  0  0  0  0  0  0  0  0  0
   45.8320   59.3120   16.5130 C   0  0  0  0  0  0  0  0  0  0  0  0
   46.7330   58.2780   16.6790 C   0  0  0  0  0  0  0  0  0  0  0  0
   47.6220   58.2930   17.7460 C   0  0  0  0  0  0  0  0  0  0  0  0
   47.6070   59.3520   18.6440 C   0  0  0  0  0  0  0  0  0  0  0  0
   46.6760   61.4190   19.3590 O   0  0  0  0  0  0  0  0  0  0  0  0
   46.2290   62.6830   18.8640 C   0  0  0  0  0  0  0  0  0  0  0  0
   43.8690   62.9550   19.4300 C   0  0  0  0  0  0  0  0  0  0  0  0
   45.1170   63.2010   19.7400 C   0  0  0  0  0  0  0  0  0  0  0  0
   49.5610   55.5020   19.2790 C   0  0  0  0  0  0  0  0  0  0  0  0
   49.1930   54.2120   19.5950 C   0  0  0  0  0  0  0  0  0  0  0  0
   50.2100   53.2370   19.9960 C   0  0  0  0  0  0  0  0  0  0  0  0
   50.7140   53.2440   21.3050 C   0  0  0  0  0  0  0  0  0  0  0  0
   51.6690   52.3250   21.6770 C   0  0  0  0  0  0  0  0  0  0  0  0
   52.1380   51.3930   20.7610 C   0  0  0  0  0  0  0  0  0  0  0  0
   51.6420   51.3800   19.4560 C   0  0  0  0  0  0  0  0  0  0  0  0
   50.6790   52.2910   19.0730 C   0  0  0  0  0  0  0  0  0  0  0  0
   53.0800   50.4900   21.1350 O   0  0  0  0  0  0  0  0  0  0  0  0
   53.1120   50.3250   22.0870 H   0  0  0  0  0  0  0  0  0  0  0  0
   52.1040   50.4640   18.5630 O   0  0  0  0  0  0  0  0  0  0  0  0
   52.8330   49.9220   18.8970 H   0  0  0  0  0  0  0  0  0  0  0  0
   50.9470   55.8440   19.1700 C   0  0  0  0  0  0  0  0  0  0  0  0
   52.0470   56.1160   19.0850 N   0  0  0  0  0  0  0  0  0  0  0  0
  1  3  1  0  0  0  0
  2  1  1  0  0  0  0
  3 15  1  0  0  0  0
  3  4  2  0  0  0  0
  5 10  1  0  0  0  0
  5 11  1  0  0  0  0
  6  5  2  0  0  0  0
  7  8  2  0  0  0  0
  7  6  1  0  0  0  0
  8  9  1  0  0  0  0
  9  1  1  0  0  0  0
  9 10  2  0  0  0  0
 12 11  1  0  0  0  0
 12 14  1  0  0  0  0
 13 14  2  0  0  0  0
 15 16  2  0  0  0  0
 16 17  1  0  0  0  0
 17 18  2  0  0  0  0
 18 19  1  0  0  0  0
 20 23  1  0  0  0  0
 20 19  2  0  0  0  0
 21 20  1  0  0  0  0
 22 21  2  0  0  0  0
 22 17  1  0  0  0  0
 23 24  1  0  0  0  0
 25 26  1  0  0  0  0
 25 21  1  0  0  0  0
 27 15  1  0  0  0  0
 28 27  3  0  0  0  0
M  END
>  <MODEL>
8

>  <REMARK>
  Name = ZINC41716876
                            x       y       z     vdW  Elec       q    Type
                         _______ _______ _______ _____ _____    ______ ____

>  <TORSDO>
F 9

>  <minimizedAffinity>
-7.4485014801295417

$$$$
ZINC41716876
 OpenBabel10211214313D

 28 29  0  0  0  0  0  0  0  0999 V2000
   49.1620   53.2130   18.8060 N   0  0  0  0  0  0  0  0  0  0  0  0
   49.4470   52.4590   19.3460 H   0  0  0  0  0  0  0  0  0  0  0  0
   48.5990   53.0010   17.6000 C   0  0  0  0  0  0  0  0  0  0  0  0
   48.3270   53.9450   16.8820 O   0  0  0  0  0  0  0  0  0  0  0  0
   50.7620   56.3930   19.7340 C   0  0  0  0  0  0  0  0  0  0  0  0
   49.6710   57.1010   20.2170 C   0  0  0  0  0  0  0  0  0  0  0  0
   48.4180   56.5200   20.2300 C   0  0  0  0  0  0  0  0  0  0  0  0
   48.2470   55.2310   19.7630 C   0  0  0  0  0  0  0  0  0  0  0  0
   49.3360   54.5170   19.2780 C   0  0  0  0  0  0  0  0  0  0  0  0
   50.5940   55.1020   19.2580 C   0  0  0  0  0  0  0  0  0  0  0  0
   51.9950   56.9650   19.7220 O   0  0  0  0  0  0  0  0  0  0  0  0
   52.9370   56.4950   20.6890 C   0  0  0  0  0  0  0  0  0  0  0  0
   52.8760   58.7740   21.5650 C   0  0  0  0  0  0  0  0  0  0  0  0
   53.0520   57.4990   21.8080 C   0  0  0  0  0  0  0  0  0  0  0  0
   48.3100   51.6290   17.1530 C   0  0  0  0  0  0  0  0  0  0  0  0
   47.0490   51.1000   17.3240 C   0  0  0  0  0  0  0  0  0  0  0  0
   46.8060   49.6830   17.0480 C   0  0  0  0  0  0  0  0  0  0  0  0
   46.7890   48.7540   18.0990 C   0  0  0  0  0  0  0  0  0  0  0  0
   46.5600   47.4230   17.8360 C   0  0  0  0  0  0  0  0  0  0  0  0
   46.3470   46.9950   16.5310 C   0  0  0  0  0  0  0  0  0  0  0  0
   46.3630   47.9120   15.4800 C   0  0  0  0  0  0  0  0  0  0  0  0
   46.5850   49.2500   15.7330 C   0  0  0  0  0  0  0  0  0  0  0  0
   46.1210   45.6800   16.2790 O   0  0  0  0  0  0  0  0  0  0  0  0
   45.4810   45.2690   16.8740 H   0  0  0  0  0  0  0  0  0  0  0  0
   46.1540   47.4870   14.2050 O   0  0  0  0  0  0  0  0  0  0  0  0
   46.4460   48.1140   13.5280 H   0  0  0  0  0  0  0  0  0  0  0  0
   49.3390   50.8440   16.5420 C   0  0  0  0  0  0  0  0  0  0  0  0
   50.1560   50.2200   16.0580 N   0  0  0  0  0  0  0  0  0  0  0  0
  1  9  1  0  0  0  0
  1  2  1  0  0  0  0
  3  1  1  0  0  0  0
  4  3  2  0  0  0  0
  5  6  2  0  0  0  0
  6  7  1  0  0  0  0
  8  7  2  0  0  0  0
  9  8  1  0  0  0  0
 10  9  2  0  0  0  0
 10  5  1  0  0  0  0
 11  5  1  0  0  0  0
 11 12  1  0  0  0  0
 12 14  1  0  0  0  0
 13 14  2  0  0  0  0
 15 16  2  0  0  0  0
 15  3  1  0  0  0  0
 17 16  1  0  0  0  0
 17 18  2  0  0  0  0
 19 18  1  0  0  0  0
 20 19  2  0  0  0  0
 21 22  2  0  0  0  0
 21 20  1  0  0  0  0
 22 17  1  0  0  0  0
 23 20  1  0  0  0  0
 23 24  1  0  0  0  0
 25 21  1  0  0  0  0
 26 25  1  0  0  0  0
 27 15  1  0  0  0  0
 28 27  3  0  0  0  0
M  END
>  <MODEL>
9

>  <REMARK>
  Name = ZINC41716876
                            x       y       z     vdW  Elec       q    Type
                         _______ _______ _______ _____ _____    ______ ____

>  <TORSDO>
F 9

>  <minimizedAffinity>
-7.414122894315792

$$$$
ZINC65985268
 OpenBabel10211214323D

 26 26  0  0  1  0  0  0  0  0999 V2000
   50.3380   53.3420   18.0070 N   0  0  0  0  0  0  0  0  0  0  0  0
   50.2200   54.0190   17.3230 H   0  0  0  0  0  0  0  0  0  0  0  0
   49.7030   52.1580   17.9010 C   0  0  0  0  0  0  0  0  0  0  0  0
   48.9040   51.9140   16.8440 N   0  0  0  0  0  0  0  0  0  0  0  0
   48.7350   52.6130   16.1920 H   0  0  0  0  0  0  0  0  0  0  0  0
   49.8510   51.3090   18.7600 O   0  0  0  0  0  0  0  0  0  0  0  0
   48.3180   50.6510   16.6840 C   0  0  0  0  0  0  0  0  0  0  0  0
   47.0430   50.4100   17.1730 C   0  0  0  0  0  0  0  0  0  0  0  0
   46.4660   49.1640   17.0150 C   0  0  0  0  0  0  0  0  0  0  0  0
   45.0800   48.9040   17.5470 C   0  0  0  0  0  0  0  0  0  0  0  0
   47.1590   48.1540   16.3700 C   0  0  0  0  0  0  0  0  0  0  0  0
   46.4300   46.5900   16.1770 Cl  0  0  0  0  0  0  0  0  0  0  0  0
   48.4320   48.3870   15.8810 C   0  0  0  0  0  0  0  0  0  0  0  0
   49.0130   49.6360   16.0290 C   0  0  0  0  0  0  0  0  0  0  0  0
   50.2610   49.8690   15.5440 O   0  0  0  0  0  0  0  0  0  0  0  0
   50.5200   49.4620   14.1990 C   0  0  0  0  0  0  0  0  0  0  0  0
   51.2060   53.6070   19.1570 C   0  0  1  0  0  0  0  0  0  0  0  0
   52.6440   53.2110   18.8130 C   0  0  0  0  0  0  0  0  0  0  0  0
   50.3830   55.5070   20.5110 N   0  0  0  0  0  0  0  0  0  0  0  0
   49.8580   54.8730   21.0240 H   0  0  0  0  0  0  0  0  0  0  0  0
   51.1570   55.0750   19.4960 C   0  0  0  0  0  0  0  0  0  0  0  0
   51.8140   55.8680   18.8560 O   0  0  0  0  0  0  0  0  0  0  0  0
   50.3360   56.9330   20.8400 C   0  0  2  0  0  0  0  0  0  0  0  0
   51.3280   57.2310   21.9660 C   0  0  0  0  0  0  0  0  0  0  0  0
   47.9210   56.9400   20.1970 C   0  0  0  0  0  0  0  0  0  0  0  0
   48.9230   57.3050   21.2950 C   0  0  0  0  0  0  0  0  0  0  0  0
  2  1  1  0  0  0  0
  3  1  1  0  0  0  0
  3  6  2  0  0  0  0
  4  3  1  0  0  0  0
  5  4  1  0  0  0  0
  7  4  1  0  0  0  0
  7  8  2  0  0  0  0
  9  8  1  0  0  0  0
  9 10  1  0  0  0  0
 11  9  2  0  0  0  0
 12 11  1  0  0  0  0
 13 14  2  0  0  0  0
 13 11  1  0  0  0  0
 14  7  1  0  0  0  0
 15 14  1  0  0  0  0
 16 15  1  0  0  0  0
 17  1  1  6  0  0  0
 17 21  1  0  0  0  0
 18 17  1  0  0  0  0
 19 20  1  0  0  0  0
 21 19  1  0  0  0  0
 22 21  2  0  0  0  0
 23 19  1  1  0  0  0
 23 26  1  0  0  0  0
 23 24  1  0  0  0  0
 25 26  1  0  0  0  0
M  END
>  <MODEL>
1

>  <REMARK>
  Name = ZINC65985268
                            x       y       z     vdW  Elec       q    Type
                         _______ _______ _______ _____ _____    ______ ____

>  <TORSDO>
F 6

>  <minimizedAffinity>
-7.8951676473261854

$$$$
ZINC65985268
 OpenBabel10211214323D

 26 26  0  0  1  0  0  0  0  0999 V2000
   49.8260   53.1030   18.6740 N   0  0  0  0  0  0  0  0  0  0  0  0
   50.4380   52.6660   19.2860 H   0  0  0  0  0  0  0  0  0  0  0  0
   49.0940   52.3680   17.8130 C   0  0  0  0  0  0  0  0  0  0  0  0
   49.2120   51.0260   17.8030 N   0  0  0  0  0  0  0  0  0  0  0  0
   49.8700   50.5920   18.3700 H   0  0  0  0  0  0  0  0  0  0  0  0
   48.3270   52.9170   17.0450 O   0  0  0  0  0  0  0  0  0  0  0  0
   48.3850   50.2550   16.9740 C   0  0  0  0  0  0  0  0  0  0  0  0
   47.1340   49.8550   17.4200 C   0  0  0  0  0  0  0  0  0  0  0  0
   46.3200   49.0960   16.6020 C   0  0  0  0  0  0  0  0  0  0  0  0
   44.9610   48.6620   17.0870 C   0  0  0  0  0  0  0  0  0  0  0  0
   46.7500   48.7310   15.3380 C   0  0  0  0  0  0  0  0  0  0  0  0
   45.7230   47.7750   14.3150 Cl  0  0  0  0  0  0  0  0  0  0  0  0
   47.9970   49.1270   14.8870 C   0  0  0  0  0  0  0  0  0  0  0  0
   48.8150   49.8940   15.6990 C   0  0  0  0  0  0  0  0  0  0  0  0
   50.0390   50.2890   15.2570 O   0  0  0  0  0  0  0  0  0  0  0  0
   50.6870   49.4430   14.3040 C   0  0  0  0  0  0  0  0  0  0  0  0
   49.6970   54.5620   18.6850 C   0  0  1  0  0  0  0  0  0  0  0  0
   48.4070   54.9550   19.4070 C   0  0  0  0  0  0  0  0  0  0  0  0
   50.7160   55.7190   20.6200 N   0  0  0  0  0  0  0  0  0  0  0  0
   49.8400   55.7280   21.0360 H   0  0  0  0  0  0  0  0  0  0  0  0
   50.8780   55.1660   19.4020 C   0  0  0  0  0  0  0  0  0  0  0  0
   51.9740   55.1540   18.8820 O   0  0  0  0  0  0  0  0  0  0  0  0
   51.8640   56.3050   21.3160 C   0  0  2  0  0  0  0  0  0  0  0  0
   51.8560   55.8580   22.7800 C   0  0  0  0  0  0  0  0  0  0  0  0
   53.1670   58.4110   20.9860 C   0  0  0  0  0  0  0  0  0  0  0  0
   51.7760   57.8310   21.2480 C   0  0  0  0  0  0  0  0  0  0  0  0
  1  2  1  0  0  0  0
  3  1  1  0  0  0  0
  4  3  1  0  0  0  0
  4  5  1  0  0  0  0
  6  3  2  0  0  0  0
  7  8  1  0  0  0  0
  7  4  1  0  0  0  0
  9 10  1  0  0  0  0
  9  8  2  0  0  0  0
 11  9  1  0  0  0  0
 12 11  1  0  0  0  0
 13 11  2  0  0  0  0
 13 14  1  0  0  0  0
 14  7  2  0  0  0  0
 15 14  1  0  0  0  0
 16 15  1  0  0  0  0
 17  1  1  1  0  0  0
 17 21  1  0  0  0  0
 17 18  1  0  0  0  0
 19 20  1  0  0  0  0
 21 19  1  0  0  0  0
 22 21  2  0  0  0  0
 23 19  1  1  0  0  0
 23 24  1  0  0  0  0
 25 26  1  0  0  0  0
 26 23  1  0  0  0  0
M  END
>  <MODEL>
2

>  <REMARK>
  Name = ZINC65985268
                            x       y       z     vdW  Elec       q    Type
                         _______ _______ _______ _____ _____    ______ ____

>  <TORSDO>
F 6

>  <minimizedAffinity>
-7.5388921273921286

$$$$
ZINC65985268
 OpenBabel10211214323D

 26 26  0  0  1  0  0  0  0  0999 V2000
   50.9260   50.1340   16.3800 N   0  0  0  0  0  0  0  0  0  0  0  0
   51.7000   49.5570   16.2930 H   0  0  0  0  0  0  0  0  0  0  0  0
   50.8510   51.0130   17.3990 C   0  0  0  0  0  0  0  0  0  0  0  0
   51.8520   51.0900   18.2970 N   0  0  0  0  0  0  0  0  0  0  0  0
   52.5970   50.4700   18.2480 H   0  0  0  0  0  0  0  0  0  0  0  0
   49.8790   51.7370   17.5080 O   0  0  0  0  0  0  0  0  0  0  0  0
   51.8190   52.0670   19.3020 C   0  0  0  0  0  0  0  0  0  0  0  0
   51.8220   53.4120   18.9650 C   0  0  0  0  0  0  0  0  0  0  0  0
   51.7890   54.3740   19.9570 C   0  0  0  0  0  0  0  0  0  0  0  0
   51.7930   55.8340   19.5890 C   0  0  0  0  0  0  0  0  0  0  0  0
   51.7540   53.9970   21.2880 C   0  0  0  0  0  0  0  0  0  0  0  0
   51.7150   55.2100   22.5300 Cl  0  0  0  0  0  0  0  0  0  0  0  0
   51.7510   52.6570   21.6330 C   0  0  0  0  0  0  0  0  0  0  0  0
   51.7770   51.6880   20.6430 C   0  0  0  0  0  0  0  0  0  0  0  0
   51.7680   50.3710   20.9780 O   0  0  0  0  0  0  0  0  0  0  0  0
   50.4950   49.7220   21.0250 C   0  0  0  0  0  0  0  0  0  0  0  0
   49.8370   50.0500   15.4040 C   0  0  1  0  0  0  0  0  0  0  0  0
   50.3990   49.6170   14.0480 C   0  0  0  0  0  0  0  0  0  0  0  0
   47.5570   49.4310   16.1380 N   0  0  0  0  0  0  0  0  0  0  0  0
   47.3030   50.3600   16.0280 H   0  0  0  0  0  0  0  0  0  0  0  0
   48.8190   49.0410   15.8710 C   0  0  0  0  0  0  0  0  0  0  0  0
   49.1370   47.8790   16.0080 O   0  0  0  0  0  0  0  0  0  0  0  0
   46.5690   48.4490   16.5930 C   0  0  2  0  0  0  0  0  0  0  0  0
   45.4380   48.3500   15.5670 C   0  0  0  0  0  0  0  0  0  0  0  0
   45.8300   47.6680   18.8480 C   0  0  0  0  0  0  0  0  0  0  0  0
   45.9970   48.8900   17.9410 C   0  0  0  0  0  0  0  0  0  0  0  0
  1  3  1  0  0  0  0
  2  1  1  0  0  0  0
  3  6  2  0  0  0  0
  3  4  1  0  0  0  0
  4  7  1  0  0  0  0
  5  4  1  0  0  0  0
  7 14  1  0  0  0  0
  8  7  2  0  0  0  0
  8  9  1  0  0  0  0
  9 11  2  0  0  0  0
 10  9  1  0  0  0  0
 11 13  1  0  0  0  0
 11 12  1  0  0  0  0
 14 15  1  0  0  0  0
 14 13  2  0  0  0  0
 15 16  1  0  0  0  0
 17 18  1  1  0  0  0
 17 21  1  0  0  0  0
 17  1  1  0  0  0  0
 19 23  1  0  0  0  0
 20 19  1  0  0  0  0
 21 22  2  0  0  0  0
 21 19  1  0  0  0  0
 23 24  1  6  0  0  0
 23 26  1  0  0  0  0
 26 25  1  0  0  0  0
M  END
>  <MODEL>
3

>  <REMARK>
  Name = ZINC65985268
                            x       y       z     vdW  Elec       q    Type
                         _______ _______ _______ _____ _____    ______ ____

>  <TORSDO>
F 6

>  <minimizedAffinity>
-7.5354074540358242

$$$$
ZINC65985268
 OpenBabel10211214323D

 26 26  0  0  1  0  0  0  0  0999 V2000
   52.3760   52.7810   18.2330 N   0  0  0  0  0  0  0  0  0  0  0  0
   52.9310   53.1400   17.5240 H   0  0  0  0  0  0  0  0  0  0  0  0
   51.7520   53.6150   19.0890 C   0  0  0  0  0  0  0  0  0  0  0  0
   51.9000   54.9480   18.9590 N   0  0  0  0  0  0  0  0  0  0  0  0
   52.5060   55.3060   18.2910 H   0  0  0  0  0  0  0  0  0  0  0  0
   51.0550   53.1640   19.9790 O   0  0  0  0  0  0  0  0  0  0  0  0
   51.1790   55.8180   19.7880 C   0  0  0  0  0  0  0  0  0  0  0  0
   49.8140   55.9810   19.6050 C   0  0  0  0  0  0  0  0  0  0  0  0
   49.1040   56.8390   20.4230 C   0  0  0  0  0  0  0  0  0  0  0  0
   47.6210   57.0150   20.2230 C   0  0  0  0  0  0  0  0  0  0  0  0
   49.7520   57.5370   21.4270 C   0  0  0  0  0  0  0  0  0  0  0  0
   48.8560   58.6150   22.4510 Cl  0  0  0  0  0  0  0  0  0  0  0  0
   51.1140   57.3800   21.6160 C   0  0  0  0  0  0  0  0  0  0  0  0
   51.8300   56.5160   20.8030 C   0  0  0  0  0  0  0  0  0  0  0  0
   53.1670   56.3550   20.9900 O   0  0  0  0  0  0  0  0  0  0  0  0
   54.0050   57.4680   20.6700 C   0  0  0  0  0  0  0  0  0  0  0  0
   52.2140   51.3310   18.3750 C   0  0  1  0  0  0  0  0  0  0  0  0
   52.5230   50.9230   19.8180 C   0  0  0  0  0  0  0  0  0  0  0  0
   50.2170   51.4290   16.9190 N   0  0  0  0  0  0  0  0  0  0  0  0
   50.7120   52.0200   16.3320 H   0  0  0  0  0  0  0  0  0  0  0  0
   50.7960   50.9480   18.0380 C   0  0  0  0  0  0  0  0  0  0  0  0
   50.1760   50.2090   18.7720 O   0  0  0  0  0  0  0  0  0  0  0  0
   48.8380   51.0560   16.5920 C   0  0  2  0  0  0  0  0  0  0  0  0
   48.8340   50.1410   15.3650 C   0  0  0  0  0  0  0  0  0  0  0  0
   48.4520   53.4380   17.2420 C   0  0  0  0  0  0  0  0  0  0  0  0
   48.0280   52.3180   16.2890 C   0  0  0  0  0  0  0  0  0  0  0  0
  1 17  1  0  0  0  0
  1  3  1  0  0  0  0
  2  1  1  0  0  0  0
  3  6  2  0  0  0  0
  4  3  1  0  0  0  0
  4  7  1  0  0  0  0
  5  4  1  0  0  0  0
  7 14  1  0  0  0  0
  8  7  2  0  0  0  0
  8  9  1  0  0  0  0
  9 11  2  0  0  0  0
 10  9  1  0  0  0  0
 11 13  1  0  0  0  0
 11 12  1  0  0  0  0
 14 15  1  0  0  0  0
 14 13  2  0  0  0  0
 16 15  1  0  0  0  0
 17 21  1  1  0  0  0
 17 18  1  0  0  0  0
 19 21  1  0  0  0  0
 20 19  1  0  0  0  0
 21 22  2  0  0  0  0
 23 24  1  6  0  0  0
 23 19  1  0  0  0  0
 26 23  1  0  0  0  0
 26 25  1  0  0  0  0
M  END
>  <MODEL>
4

>  <REMARK>
  Name = ZINC65985268
                            x       y       z     vdW  Elec       q    Type
                         _______ _______ _______ _____ _____    ______ ____

>  <TORSDO>
F 6

>  <minimizedAffinity>
-7.5301928685337742

$$$$
ZINC65985268
 OpenBabel10211214323D

 26 26  0  0  1  0  0  0  0  0999 V2000
   49.0690   56.7130   19.2320 N   0  0  0  0  0  0  0  0  0  0  0  0
   49.7190   57.1820   18.6870 H   0  0  0  0  0  0  0  0  0  0  0  0
   49.1750   55.3810   19.4100 C   0  0  0  0  0  0  0  0  0  0  0  0
   50.1850   54.7010   18.8320 N   0  0  0  0  0  0  0  0  0  0  0  0
   50.7980   55.1590   18.2350 H   0  0  0  0  0  0  0  0  0  0  0  0
   48.3590   54.7920   20.0930 O   0  0  0  0  0  0  0  0  0  0  0  0
   50.3500   53.3340   19.0920 C   0  0  0  0  0  0  0  0  0  0  0  0
   49.6560   52.3960   18.3430 C   0  0  0  0  0  0  0  0  0  0  0  0
   49.8190   51.0480   18.6000 C   0  0  0  0  0  0  0  0  0  0  0  0
   49.0640   50.0290   17.7860 C   0  0  0  0  0  0  0  0  0  0  0  0
   50.6740   50.6310   19.6050 C   0  0  0  0  0  0  0  0  0  0  0  0
   50.8740   48.9370   19.9260 Cl  0  0  0  0  0  0  0  0  0  0  0  0
   51.3700   51.5620   20.3570 C   0  0  0  0  0  0  0  0  0  0  0  0
   51.2160   52.9140   20.0990 C   0  0  0  0  0  0  0  0  0  0  0  0
   51.9020   53.8300   20.8320 O   0  0  0  0  0  0  0  0  0  0  0  0
   51.5730   53.9290   22.2200 C   0  0  0  0  0  0  0  0  0  0  0  0
   47.9710   57.4510   19.8610 C   0  0  1  0  0  0  0  0  0  0  0  0
   48.4730   58.1170   21.1440 C   0  0  0  0  0  0  0  0  0  0  0  0
   46.9980   59.6760   19.3900 N   0  0  0  0  0  0  0  0  0  0  0  0
   46.9860   59.8380   20.3460 H   0  0  0  0  0  0  0  0  0  0  0  0
   47.4660   58.5070   18.9100 C   0  0  0  0  0  0  0  0  0  0  0  0
   47.4810   58.3040   17.7150 O   0  0  0  0  0  0  0  0  0  0  0  0
   46.5070   60.7020   18.4660 C   0  0  2  0  0  0  0  0  0  0  0  0
   47.6480   61.6600   18.1150 C   0  0  0  0  0  0  0  0  0  0  0  0
   45.9360   62.7400   19.7940 C   0  0  0  0  0  0  0  0  0  0  0  0
   45.3710   61.4830   19.1290 C   0  0  0  0  0  0  0  0  0  0  0  0
  1  3  1  0  0  0  0
  1 17  1  0  0  0  0
  2  1  1  0  0  0  0
  3  6  2  0  0  0  0
  4  7  1  0  0  0  0
  4  3  1  0  0  0  0
  5  4  1  0  0  0  0
  7 14  2  0  0  0  0
  8  9  2  0  0  0  0
  8  7  1  0  0  0  0
  9 11  1  0  0  0  0
 10  9  1  0  0  0  0
 11 12  1  0  0  0  0
 11 13  2  0  0  0  0
 14 13  1  0  0  0  0
 14 15  1  0  0  0  0
 15 16  1  0  0  0  0
 17 21  1  6  0  0  0
 17 18  1  0  0  0  0
 19 20  1  0  0  0  0
 21 19  1  0  0  0  0
 22 21  2  0  0  0  0
 23 24  1  1  0  0  0
 23 26  1  0  0  0  0
 23 19  1  0  0  0  0
 26 25  1  0  0  0  0
M  END
>  <MODEL>
5

>  <REMARK>
  Name = ZINC65985268
                            x       y       z     vdW  Elec       q    Type
                         _______ _______ _______ _____ _____    ______ ____

>  <TORSDO>
F 6

>  <minimizedAffinity>
-7.2980790632112562

$$$$
ZINC65985268
 OpenBabel10211214323D

 26 26  0  0  1  0  0  0  0  0999 V2000
   48.8490   56.7340   18.9190 N   0  0  0  0  0  0  0  0  0  0  0  0
   49.4350   57.1700   18.2820 H   0  0  0  0  0  0  0  0  0  0  0  0
   48.9720   55.4120   19.1530 C   0  0  0  0  0  0  0  0  0  0  0  0
   49.9100   54.6960   18.5010 N   0  0  0  0  0  0  0  0  0  0  0  0
   50.4540   55.1190   17.8160 H   0  0  0  0  0  0  0  0  0  0  0  0
   48.2370   54.8650   19.9530 O   0  0  0  0  0  0  0  0  0  0  0  0
   50.1010   53.3430   18.8110 C   0  0  0  0  0  0  0  0  0  0  0  0
   50.8750   52.9830   19.9040 C   0  0  0  0  0  0  0  0  0  0  0  0
   51.0620   51.6490   20.2090 C   0  0  0  0  0  0  0  0  0  0  0  0
   51.9030   51.2590   21.3970 C   0  0  0  0  0  0  0  0  0  0  0  0
   50.4800   50.6680   19.4250 C   0  0  0  0  0  0  0  0  0  0  0  0
   50.7200   48.9930   19.8120 Cl  0  0  0  0  0  0  0  0  0  0  0  0
   49.7070   51.0200   18.3330 C   0  0  0  0  0  0  0  0  0  0  0  0
   49.5090   52.3560   18.0260 C   0  0  0  0  0  0  0  0  0  0  0  0
   48.7450   52.7050   16.9570 O   0  0  0  0  0  0  0  0  0  0  0  0
   47.3370   52.4880   17.0680 C   0  0  0  0  0  0  0  0  0  0  0  0
   47.8300   57.5110   19.6280 C   0  0  1  0  0  0  0  0  0  0  0  0
   48.4370   58.1090   20.8990 C   0  0  0  0  0  0  0  0  0  0  0  0
   46.9200   59.7850   19.2770 N   0  0  0  0  0  0  0  0  0  0  0  0
   46.9400   59.9070   20.2380 H   0  0  0  0  0  0  0  0  0  0  0  0
   47.3350   58.6220   18.7360 C   0  0  0  0  0  0  0  0  0  0  0  0
   47.3100   58.4680   17.5340 O   0  0  0  0  0  0  0  0  0  0  0  0
   46.4390   60.8630   18.4100 C   0  0  2  0  0  0  0  0  0  0  0  0
   47.5770   61.8500   18.1440 C   0  0  0  0  0  0  0  0  0  0  0  0
   45.8180   62.8280   19.8240 C   0  0  0  0  0  0  0  0  0  0  0  0
   45.2830   61.5920   19.0980 C   0  0  0  0  0  0  0  0  0  0  0  0
  1  3  1  0  0  0  0
  1 17  1  0  0  0  0
  2  1  1  0  0  0  0
  3  6  2  0  0  0  0
  4  7  1  0  0  0  0
  4  3  1  0  0  0  0
  5  4  1  0  0  0  0
  7  8  2  0  0  0  0
  8  9  1  0  0  0  0
  9 10  1  0  0  0  0
 11 12  1  0  0  0  0
 11  9  2  0  0  0  0
 13 11  1  0  0  0  0
 14 13  2  0  0  0  0
 14  7  1  0  0  0  0
 15 16  1  0  0  0  0
 15 14  1  0  0  0  0
 17 21  1  6  0  0  0
 17 18  1  0  0  0  0
 19 20  1  0  0  0  0
 21 19  1  0  0  0  0
 22 21  2  0  0  0  0
 23 24  1  1  0  0  0
 23 26  1  0  0  0  0
 23 19  1  0  0  0  0
 26 25  1  0  0  0  0
M  END
>  <MODEL>
6

>  <REMARK>
  Name = ZINC65985268
                            x       y       z     vdW  Elec       q    Type
                         _______ _______ _______ _____ _____    ______ ____

>  <TORSDO>
F 6

>  <minimizedAffinity>
-7.1659895772373883

$$$$
ZINC65985268
 OpenBabel10211214323D

 26 26  0  0  1  0  0  0  0  0999 V2000
   49.3170   50.6740   17.6600 N   0  0  0  0  0  0  0  0  0  0  0  0
   49.4900   49.9470   18.2770 H   0  0  0  0  0  0  0  0  0  0  0  0
   49.4890   51.9510   18.0570 C   0  0  0  0  0  0  0  0  0  0  0  0
   49.9020   52.2170   19.3110 N   0  0  0  0  0  0  0  0  0  0  0  0
   50.0130   51.4940   19.9490 H   0  0  0  0  0  0  0  0  0  0  0  0
   49.2730   52.8630   17.2810 O   0  0  0  0  0  0  0  0  0  0  0  0
   50.1710   53.5380   19.6960 C   0  0  0  0  0  0  0  0  0  0  0  0
   49.1300   54.4390   19.8600 C   0  0  0  0  0  0  0  0  0  0  0  0
   49.3970   55.7410   20.2390 C   0  0  0  0  0  0  0  0  0  0  0  0
   48.2650   56.7200   20.4170 C   0  0  0  0  0  0  0  0  0  0  0  0
   50.7020   56.1490   20.4560 C   0  0  0  0  0  0  0  0  0  0  0  0
   51.0310   57.7860   20.9300 Cl  0  0  0  0  0  0  0  0  0  0  0  0
   51.7450   55.2550   20.2940 C   0  0  0  0  0  0  0  0  0  0  0  0
   51.4840   53.9460   19.9200 C   0  0  0  0  0  0  0  0  0  0  0  0
   52.5070   53.0640   19.7660 O   0  0  0  0  0  0  0  0  0  0  0  0
   53.0990   52.9790   18.4680 C   0  0  0  0  0  0  0  0  0  0  0  0
   48.8690   50.3860   16.2950 C   0  0  1  0  0  0  0  0  0  0  0  0
   50.0830   50.0940   15.4100 C   0  0  0  0  0  0  0  0  0  0  0  0
   46.6230   49.3540   16.4050 N   0  0  0  0  0  0  0  0  0  0  0  0
   46.2500   50.2470   16.4630 H   0  0  0  0  0  0  0  0  0  0  0  0
   47.9570   49.1850   16.3090 C   0  0  0  0  0  0  0  0  0  0  0  0
   48.4230   48.0690   16.2350 O   0  0  0  0  0  0  0  0  0  0  0  0
   45.7380   48.1870   16.4180 C   0  0  2  0  0  0  0  0  0  0  0  0
   44.9510   48.1280   15.1070 C   0  0  0  0  0  0  0  0  0  0  0  0
   45.3520   47.5900   18.8140 C   0  0  0  0  0  0  0  0  0  0  0  0
   44.7640   48.3010   17.5930 C   0  0  0  0  0  0  0  0  0  0  0  0
  1  3  1  0  0  0  0
  1  2  1  0  0  0  0
  3  4  1  0  0  0  0
  4  7  1  0  0  0  0
  4  5  1  0  0  0  0
  6  3  2  0  0  0  0
  7  8  2  0  0  0  0
  7 14  1  0  0  0  0
  8  9  1  0  0  0  0
  9 10  1  0  0  0  0
  9 11  2  0  0  0  0
 11 12  1  0  0  0  0
 13 11  1  0  0  0  0
 14 13  2  0  0  0  0
 15 14  1  0  0  0  0
 16 15  1  0  0  0  0
 17 18  1  1  0  0  0
 17 21  1  0  0  0  0
 17  1  1  0  0  0  0
 19 23  1  0  0  0  0
 19 20  1  0  0  0  0
 21 19  1  0  0  0  0
 22 21  2  0  0  0  0
 23 24  1  6  0  0  0
 23 26  1  0  0  0  0
 26 25  1  0  0  0  0
M  END
>  <MODEL>
7

>  <REMARK>
  Name = ZINC65985268
                            x       y       z     vdW  Elec       q    Type
                         _______ _______ _______ _____ _____    ______ ____

>  <TORSDO>
F 6

>  <minimizedAffinity>
-7.0662705669258319

$$$$
ZINC65985268
 OpenBabel10211214323D

 26 26  0  0  1  0  0  0  0  0999 V2000
   49.4880   52.9580   17.4310 N   0  0  0  0  0  0  0  0  0  0  0  0
   50.0980   53.1760   16.7100 H   0  0  0  0  0  0  0  0  0  0  0  0
   49.3220   53.8160   18.4570 C   0  0  0  0  0  0  0  0  0  0  0  0
   50.0050   54.9780   18.4810 N   0  0  0  0  0  0  0  0  0  0  0  0
   50.6630   55.1680   17.7940 H   0  0  0  0  0  0  0  0  0  0  0  0
   48.5560   53.5420   19.3620 O   0  0  0  0  0  0  0  0  0  0  0  0
   49.7640   55.9120   19.4980 C   0  0  0  0  0  0  0  0  0  0  0  0
   48.5320   56.5420   19.5860 C   0  0  0  0  0  0  0  0  0  0  0  0
   48.2960   57.4620   20.5890 C   0  0  0  0  0  0  0  0  0  0  0  0
   46.9570   58.1460   20.6830 C   0  0  0  0  0  0  0  0  0  0  0  0
   49.2880   57.7580   21.5080 C   0  0  0  0  0  0  0  0  0  0  0  0
   48.9860   58.9170   22.7650 Cl  0  0  0  0  0  0  0  0  0  0  0  0
   50.5200   57.1340   21.4270 C   0  0  0  0  0  0  0  0  0  0  0  0
   50.7600   56.2050   20.4280 C   0  0  0  0  0  0  0  0  0  0  0  0
   51.9680   55.5850   20.3490 O   0  0  0  0  0  0  0  0  0  0  0  0
   53.1270   56.4220   20.3600 C   0  0  0  0  0  0  0  0  0  0  0  0
   48.7450   51.6950   17.4060 C   0  0  1  0  0  0  0  0  0  0  0  0
   48.3080   51.3900   15.9710 C   0  0  0  0  0  0  0  0  0  0  0  0
   50.2190   50.6840   19.1170 N   0  0  0  0  0  0  0  0  0  0  0  0
   50.0730   51.4730   19.6620 H   0  0  0  0  0  0  0  0  0  0  0  0
   49.6300   50.5820   17.9090 C   0  0  0  0  0  0  0  0  0  0  0  0
   49.8110   49.5970   17.2270 O   0  0  0  0  0  0  0  0  0  0  0  0
   51.0780   49.6030   19.6050 C   0  0  2  0  0  0  0  0  0  0  0  0
   50.4560   48.9830   20.8580 C   0  0  0  0  0  0  0  0  0  0  0  0
   52.3620   51.6810   20.1310 C   0  0  0  0  0  0  0  0  0  0  0  0
   52.4600   50.1650   19.9460 C   0  0  0  0  0  0  0  0  0  0  0  0
  1  3  1  0  0  0  0
  2  1  1  0  0  0  0
  3  4  1  0  0  0  0
  3  6  2  0  0  0  0
  4  7  1  0  0  0  0
  5  4  1  0  0  0  0
  7  8  2  0  0  0  0
  7 14  1  0  0  0  0
  8  9  1  0  0  0  0
  9 10  1  0  0  0  0
  9 11  2  0  0  0  0
 11 12  1  0  0  0  0
 13 11  1  0  0  0  0
 14 13  2  0  0  0  0
 15 16  1  0  0  0  0
 15 14  1  0  0  0  0
 17 18  1  6  0  0  0
 17  1  1  0  0  0  0
 17 21  1  0  0  0  0
 19 20  1  0  0  0  0
 21 19  1  0  0  0  0
 22 21  2  0  0  0  0
 23 19  1  1  0  0  0
 23 26  1  0  0  0  0
 23 24  1  0  0  0  0
 26 25  1  0  0  0  0
M  END
>  <MODEL>
8

>  <REMARK>
  Name = ZINC65985268
                            x       y       z     vdW  Elec       q    Type
                         _______ _______ _______ _____ _____    ______ ____

>  <TORSDO>
F 6

>  <minimizedAffinity>
-6.8519701414671692

$$$$
ZINC65985268
 OpenBabel10211214323D

 26 26  0  0  1  0  0  0  0  0999 V2000
   50.9220   55.8390   19.6520 N   0  0  0  0  0  0  0  0  0  0  0  0
   51.5770   56.1370   19.0020 H   0  0  0  0  0  0  0  0  0  0  0  0
   50.3670   54.6160   19.5370 C   0  0  0  0  0  0  0  0  0  0  0  0
   50.7220   53.8070   18.5190 N   0  0  0  0  0  0  0  0  0  0  0  0
   51.3280   54.1300   17.8320 H   0  0  0  0  0  0  0  0  0  0  0  0
   49.5460   54.2420   20.3520 O   0  0  0  0  0  0  0  0  0  0  0  0
   50.2160   52.5020   18.4510 C   0  0  0  0  0  0  0  0  0  0  0  0
   49.0330   52.2500   17.7740 C   0  0  0  0  0  0  0  0  0  0  0  0
   48.5350   50.9620   17.7080 C   0  0  0  0  0  0  0  0  0  0  0  0
   47.2490   50.6900   16.9720 C   0  0  0  0  0  0  0  0  0  0  0  0
   49.2160   49.9220   18.3160 C   0  0  0  0  0  0  0  0  0  0  0  0
   48.5850   48.3070   18.2320 Cl  0  0  0  0  0  0  0  0  0  0  0  0
   50.3970   50.1660   18.9940 C   0  0  0  0  0  0  0  0  0  0  0  0
   50.9050   51.4540   19.0580 C   0  0  0  0  0  0  0  0  0  0  0  0
   52.0690   51.6960   19.7180 O   0  0  0  0  0  0  0  0  0  0  0  0
   52.1060   51.3660   21.1080 C   0  0  0  0  0  0  0  0  0  0  0  0
   50.5350   56.7170   20.7590 C   0  0  1  0  0  0  0  0  0  0  0  0
   51.5660   57.8400   20.9030 C   0  0  0  0  0  0  0  0  0  0  0  0
   48.9330   57.8930   19.2860 N   0  0  0  0  0  0  0  0  0  0  0  0
   49.6270   57.9260   18.6100 H   0  0  0  0  0  0  0  0  0  0  0  0
   49.1790   57.3130   20.4770 C   0  0  0  0  0  0  0  0  0  0  0  0
   48.3110   57.2710   21.3220 O   0  0  0  0  0  0  0  0  0  0  0  0
   47.6150   58.4720   19.0130 C   0  0  2  0  0  0  0  0  0  0  0  0
   47.3580   58.4670   17.5040 C   0  0  0  0  0  0  0  0  0  0  0  0
   46.4050   60.6540   18.8830 C   0  0  0  0  0  0  0  0  0  0  0  0
   47.5740   59.9100   19.5330 C   0  0  0  0  0  0  0  0  0  0  0  0
  2  1  1  0  0  0  0
  3  1  1  0  0  0  0
  3  6  2  0  0  0  0
  4  3  1  0  0  0  0
  5  4  1  0  0  0  0
  7  4  1  0  0  0  0
  7 14  2  0  0  0  0
  8  7  1  0  0  0  0
  9  8  2  0  0  0  0
  9 11  1  0  0  0  0
 10  9  1  0  0  0  0
 11 13  2  0  0  0  0
 12 11  1  0  0  0  0
 13 14  1  0  0  0  0
 14 15  1  0  0  0  0
 15 16  1  0  0  0  0
 17  1  1  6  0  0  0
 17 18  1  0  0  0  0
 19 21  1  0  0  0  0
 20 19  1  0  0  0  0
 21 17  1  0  0  0  0
 21 22  2  0  0  0  0
 23 24  1  6  0  0  0
 23 19  1  0  0  0  0
 23 26  1  0  0  0  0
 25 26  1  0  0  0  0
M  END
>  <MODEL>
9

>  <REMARK>
  Name = ZINC65985268
                            x       y       z     vdW  Elec       q    Type
                         _______ _______ _______ _____ _____    ______ ____

>  <TORSDO>
F 6

>  <minimizedAffinity>
-6.6857207138348027

$$$$
ZINC50661256
 OpenBabel10211214333D

 22 22  0  0  1  0  0  0  0  0999 V2000
   51.6270   54.6540   20.9550 S   0  0  0  0  0  0  0  0  0  0  0  0
   52.5830   55.1460   20.0250 O   0  0  0  0  0  0  0  0  0  0  0  0
   51.9230   54.4810   22.3330 O   0  0  0  0  0  0  0  0  0  0  0  0
   50.2390   55.7350   20.8690 C   0  0  0  0  0  0  0  0  0  0  0  0
   49.1260   55.3750   20.1340 C   0  0  0  0  0  0  0  0  0  0  0  0
   48.0360   56.2240   20.0660 C   0  0  0  0  0  0  0  0  0  0  0  0
   48.0560   57.4340   20.7340 C   0  0  0  0  0  0  0  0  0  0  0  0
   49.1640   57.7990   21.4720 C   0  0  0  0  0  0  0  0  0  0  0  0
   50.2590   56.9470   21.5470 C   0  0  0  0  0  0  0  0  0  0  0  0
   51.3800   57.3110   22.2960 N   0  0  0  0  0  0  0  0  0  0  0  0
   51.5670   56.8660   23.1370 H   0  0  0  0  0  0  0  0  0  0  0  0
   52.2720   58.3680   21.8120 C   0  0  0  0  0  0  0  0  0  0  0  0
   53.7250   57.9010   21.9280 C   0  0  0  0  0  0  0  0  0  0  0  0
   54.3970   57.9800   20.5560 C   0  0  0  0  0  0  0  0  0  0  0  0
   51.1350   53.1780   20.3870 N   0  0  0  0  0  0  0  0  0  0  0  0
   50.2080   52.9070   20.4780 H   0  0  0  0  0  0  0  0  0  0  0  0
   52.0990   52.2810   19.7450 C   0  0  1  0  0  0  0  0  0  0  0  0
   52.3430   51.0670   20.6440 C   0  0  0  0  0  0  0  0  0  0  0  0
   52.7550   49.8710   19.7840 C   0  0  0  0  0  0  0  0  0  0  0  0
   51.5440   51.8150   18.3980 C   0  0  0  0  0  0  0  0  0  0  0  0
   49.3430   50.6360   18.2760 C   0  0  0  0  0  0  0  0  0  0  0  0
   50.0260   52.0020   18.3790 C   0  0  0  0  0  0  0  0  0  0  0  0
  1  3  2  0  0  0  0
  2  1  2  0  0  0  0
  4  1  1  0  0  0  0
  4  9  2  0  0  0  0
  5  4  1  0  0  0  0
  6  5  2  0  0  0  0
  6  7  1  0  0  0  0
  7  8  2  0  0  0  0
  8  9  1  0  0  0  0
  9 10  1  0  0  0  0
 10 11  1  0  0  0  0
 12 13  1  0  0  0  0
 12 10  1  0  0  0  0
 14 13  1  0  0  0  0
 15 16  1  0  0  0  0
 15  1  1  0  0  0  0
 17 20  1  1  0  0  0
 17 15  1  0  0  0  0
 17 18  1  0  0  0  0
 19 18  1  0  0  0  0
 21 22  1  0  0  0  0
 22 20  1  0  0  0  0
M  END
>  <MODEL>
1

>  <REMARK>
  Name = ZINC50661256
                            x       y       z     vdW  Elec       q    Type
                         _______ _______ _______ _____ _____    ______ ____

>  <TORSDO>
F 9

>  <minimizedAffinity>
-6.8708327844797985

$$$$
ZINC50661256
 OpenBabel10211214333D

 22 22  0  0  1  0  0  0  0  0999 V2000
   51.0180   53.4350   19.1520 S   0  0  0  0  0  0  0  0  0  0  0  0
   50.8520   52.7760   20.4010 O   0  0  0  0  0  0  0  0  0  0  0  0
   52.2270   53.3660   18.4100 O   0  0  0  0  0  0  0  0  0  0  0  0
   49.7430   52.8360   18.0940 C   0  0  0  0  0  0  0  0  0  0  0  0
   48.8370   53.7180   17.5350 C   0  0  0  0  0  0  0  0  0  0  0  0
   47.8350   53.2490   16.7050 C   0  0  0  0  0  0  0  0  0  0  0  0
   47.7380   51.8970   16.4310 C   0  0  0  0  0  0  0  0  0  0  0  0
   48.6390   51.0110   16.9850 C   0  0  0  0  0  0  0  0  0  0  0  0
   49.6500   51.4790   17.8150 C   0  0  0  0  0  0  0  0  0  0  0  0
   50.5670   50.5860   18.3740 N   0  0  0  0  0  0  0  0  0  0  0  0
   51.5130   50.6770   18.1800 H   0  0  0  0  0  0  0  0  0  0  0  0
   50.1000   49.5100   19.2510 C   0  0  0  0  0  0  0  0  0  0  0  0
   51.2210   49.1130   20.2140 C   0  0  0  0  0  0  0  0  0  0  0  0
   52.5330   49.7550   19.7610 C   0  0  0  0  0  0  0  0  0  0  0  0
   50.7180   55.0410   19.4220 N   0  0  0  0  0  0  0  0  0  0  0  0
   50.9890   55.7020   18.7670 H   0  0  0  0  0  0  0  0  0  0  0  0
   50.0410   55.4630   20.6510 C   0  0  1  0  0  0  0  0  0  0  0  0
   50.9300   56.4510   21.4090 C   0  0  0  0  0  0  0  0  0  0  0  0
   51.6200   55.7300   22.5690 C   0  0  0  0  0  0  0  0  0  0  0  0
   48.7160   56.1400   20.2970 C   0  0  0  0  0  0  0  0  0  0  0  0
   47.3670   58.2240   20.5830 C   0  0  0  0  0  0  0  0  0  0  0  0
   48.5750   57.4370   21.0950 C   0  0  0  0  0  0  0  0  0  0  0  0
  1 15  1  0  0  0  0
  1  2  2  0  0  0  0
  3  1  2  0  0  0  0
  4  1  1  0  0  0  0
  5  4  2  0  0  0  0
  6  5  1  0  0  0  0
  7  6  2  0  0  0  0
  7  8  1  0  0  0  0
  8  9  2  0  0  0  0
  9  4  1  0  0  0  0
  9 10  1  0  0  0  0
 10 12  1  0  0  0  0
 11 10  1  0  0  0  0
 12 13  1  0  0  0  0
 14 13  1  0  0  0  0
 16 15  1  0  0  0  0
 17 15  1  6  0  0  0
 17 18  1  0  0  0  0
 18 19  1  0  0  0  0
 20 17  1  0  0  0  0
 20 22  1  0  0  0  0
 21 22  1  0  0  0  0
M  END
>  <MODEL>
2

>  <REMARK>
  Name = ZINC50661256
                            x       y       z     vdW  Elec       q    Type
                         _______ _______ _______ _____ _____    ______ ____

>  <TORSDO>
F 9

>  <minimizedAffinity>
-6.6818117325527133

$$$$
ZINC50661256
 OpenBabel10211214333D

 22 22  0  0  1  0  0  0  0  0999 V2000
   49.1050   50.3910   16.8620 S   0  0  0  0  0  0  0  0  0  0  0  0
   48.2520   51.5280   16.8660 O   0  0  0  0  0  0  0  0  0  0  0  0
   50.1410   50.2190   15.9050 O   0  0  0  0  0  0  0  0  0  0  0  0
   49.8690   50.3290   18.4480 C   0  0  0  0  0  0  0  0  0  0  0  0
   49.7240   49.2080   19.2420 C   0  0  0  0  0  0  0  0  0  0  0  0
   50.3230   49.1590   20.4880 C   0  0  0  0  0  0  0  0  0  0  0  0
   51.0700   50.2310   20.9410 C   0  0  0  0  0  0  0  0  0  0  0  0
   51.2200   51.3530   20.1520 C   0  0  0  0  0  0  0  0  0  0  0  0
   50.6240   51.4040   18.8990 C   0  0  0  0  0  0  0  0  0  0  0  0
   50.7780   52.5370   18.0950 N   0  0  0  0  0  0  0  0  0  0  0  0
   50.9890   52.4390   17.1540 H   0  0  0  0  0  0  0  0  0  0  0  0
   50.6220   53.8730   18.6760 C   0  0  0  0  0  0  0  0  0  0  0  0
   49.1370   54.1550   18.9150 C   0  0  0  0  0  0  0  0  0  0  0  0
   48.9870   55.1710   20.0480 C   0  0  0  0  0  0  0  0  0  0  0  0
   48.1220   49.0640   16.7390 N   0  0  0  0  0  0  0  0  0  0  0  0
   48.4500   48.1910   17.0040 H   0  0  0  0  0  0  0  0  0  0  0  0
   46.7550   49.2090   16.2320 C   0  0  1  0  0  0  0  0  0  0  0  0
   46.4370   48.0520   15.2830 C   0  0  0  0  0  0  0  0  0  0  0  0
   44.9320   48.0120   15.0130 C   0  0  0  0  0  0  0  0  0  0  0  0
   45.7710   49.1920   17.4030 C   0  0  0  0  0  0  0  0  0  0  0  0
   45.2150   47.3490   18.9970 C   0  0  0  0  0  0  0  0  0  0  0  0
   46.3180   48.2940   18.5150 C   0  0  0  0  0  0  0  0  0  0  0  0
  1  2  2  0  0  0  0
  1  4  1  0  0  0  0
  3  1  2  0  0  0  0
  4  9  2  0  0  0  0
  4  5  1  0  0  0  0
  5  6  2  0  0  0  0
  6  7  1  0  0  0  0
  8  7  2  0  0  0  0
  9  8  1  0  0  0  0
 10 12  1  0  0  0  0
 10  9  1  0  0  0  0
 11 10  1  0  0  0  0
 12 13  1  0  0  0  0
 13 14  1  0  0  0  0
 15  1  1  0  0  0  0
 15 16  1  0  0  0  0
 17 18  1  1  0  0  0
 17 15  1  0  0  0  0
 17 20  1  0  0  0  0
 19 18  1  0  0  0  0
 20 22  1  0  0  0  0
 22 21  1  0  0  0  0
M  END
>  <MODEL>
3

>  <REMARK>
  Name = ZINC50661256
                            x       y       z     vdW  Elec       q    Type
                         _______ _______ _______ _____ _____    ______ ____

>  <TORSDO>
F 9

>  <minimizedAffinity>
-6.5217307706578467

$$$$
ZINC50661256
 OpenBabel10211214333D

 22 22  0  0  1  0  0  0  0  0999 V2000
   49.9100   54.6930   18.8860 S   0  0  0  0  0  0  0  0  0  0  0  0
   48.9610   54.5110   17.8420 O   0  0  0  0  0  0  0  0  0  0  0  0
   51.2810   54.9650   18.6300 O   0  0  0  0  0  0  0  0  0  0  0  0
   49.3120   56.0160   19.8840 C   0  0  0  0  0  0  0  0  0  0  0  0
   48.1260   56.6460   19.5600 C   0  0  0  0  0  0  0  0  0  0  0  0
   47.6560   57.6850   20.3430 C   0  0  0  0  0  0  0  0  0  0  0  0
   48.3710   58.0950   21.4530 C   0  0  0  0  0  0  0  0  0  0  0  0
   49.5560   57.4690   21.7840 C   0  0  0  0  0  0  0  0  0  0  0  0
   50.0280   56.4220   21.0020 C   0  0  0  0  0  0  0  0  0  0  0  0
   51.2250   55.7830   21.3370 N   0  0  0  0  0  0  0  0  0  0  0  0
   51.3470   54.8430   21.1310 H   0  0  0  0  0  0  0  0  0  0  0  0
   52.2940   56.5330   22.0010 C   0  0  0  0  0  0  0  0  0  0  0  0
   53.1590   57.2290   20.9470 C   0  0  0  0  0  0  0  0  0  0  0  0
   53.0980   58.7420   21.1570 C   0  0  0  0  0  0  0  0  0  0  0  0
   49.8630   53.3200   19.8110 N   0  0  0  0  0  0  0  0  0  0  0  0
   49.2240   53.2460   20.5370 H   0  0  0  0  0  0  0  0  0  0  0  0
   50.7860   52.2170   19.5310 C   0  0  1  0  0  0  0  0  0  0  0  0
   51.1090   51.4800   20.8330 C   0  0  0  0  0  0  0  0  0  0  0  0
   50.8690   52.4140   22.0200 C   0  0  0  0  0  0  0  0  0  0  0  0
   50.1350   51.2460   18.5440 C   0  0  0  0  0  0  0  0  0  0  0  0
   48.7180   49.1980   18.7550 C   0  0  0  0  0  0  0  0  0  0  0  0
   50.0280   49.8610   19.1850 C   0  0  0  0  0  0  0  0  0  0  0  0
  1 15  1  0  0  0  0
  1  4  1  0  0  0  0
  2  1  2  0  0  0  0
  3  1  2  0  0  0  0
  4  9  1  0  0  0  0
  5  4  2  0  0  0  0
  5  6  1  0  0  0  0
  6  7  2  0  0  0  0
  7  8  1  0  0  0  0
  9 10  1  0  0  0  0
  9  8  2  0  0  0  0
 10 12  1  0  0  0  0
 11 10  1  0  0  0  0
 13 14  1  0  0  0  0
 13 12  1  0  0  0  0
 15 16  1  0  0  0  0
 17 20  1  1  0  0  0
 17 15  1  0  0  0  0
 17 18  1  0  0  0  0
 18 19  1  0  0  0  0
 20 22  1  0  0  0  0
 21 22  1  0  0  0  0
M  END
>  <MODEL>
4

>  <REMARK>
  Name = ZINC50661256
                            x       y       z     vdW  Elec       q    Type
                         _______ _______ _______ _____ _____    ______ ____

>  <TORSDO>
F 9

>  <minimizedAffinity>
-6.5126707303142544

$$$$
ZINC50661256
 OpenBabel10211214333D

 22 22  0  0  1  0  0  0  0  0999 V2000
   50.5740   53.8150   19.2250 S   0  0  0  0  0  0  0  0  0  0  0  0
   51.8020   54.3080   18.7070 O   0  0  0  0  0  0  0  0  0  0  0  0
   50.5180   52.7890   20.2070 O   0  0  0  0  0  0  0  0  0  0  0  0
   49.7180   55.2010   19.8960 C   0  0  0  0  0  0  0  0  0  0  0  0
   48.4750   55.5500   19.4050 C   0  0  0  0  0  0  0  0  0  0  0  0
   47.8030   56.6390   19.9310 C   0  0  0  0  0  0  0  0  0  0  0  0
   48.3720   57.3800   20.9500 C   0  0  0  0  0  0  0  0  0  0  0  0
   49.6130   57.0360   21.4460 C   0  0  0  0  0  0  0  0  0  0  0  0
   50.2900   55.9400   20.9240 C   0  0  0  0  0  0  0  0  0  0  0  0
   51.5430   55.5860   21.4260 N   0  0  0  0  0  0  0  0  0  0  0  0
   51.9250   54.7210   21.2130 H   0  0  0  0  0  0  0  0  0  0  0  0
   52.2810   56.5220   22.2790 C   0  0  0  0  0  0  0  0  0  0  0  0
   53.2500   57.3390   21.4210 C   0  0  0  0  0  0  0  0  0  0  0  0
   52.9280   58.8270   21.5650 C   0  0  0  0  0  0  0  0  0  0  0  0
   49.6950   53.2770   17.9280 N   0  0  0  0  0  0  0  0  0  0  0  0
   49.7720   53.7250   17.0710 H   0  0  0  0  0  0  0  0  0  0  0  0
   48.8030   52.1240   18.0750 C   0  0  1  0  0  0  0  0  0  0  0  0
   47.5500   52.3380   17.2240 C   0  0  0  0  0  0  0  0  0  0  0  0
   47.7420   53.5660   16.3320 C   0  0  0  0  0  0  0  0  0  0  0  0
   49.5260   50.8580   17.6100 C   0  0  0  0  0  0  0  0  0  0  0  0
   48.1670   49.0140   18.6100 C   0  0  0  0  0  0  0  0  0  0  0  0
   49.4730   49.8040   18.7170 C   0  0  0  0  0  0  0  0  0  0  0  0
  1  4  1  0  0  0  0
  1  3  2  0  0  0  0
  2  1  2  0  0  0  0
  4  9  1  0  0  0  0
  5  4  2  0  0  0  0
  5  6  1  0  0  0  0
  6  7  2  0  0  0  0
  7  8  1  0  0  0  0
  9 10  1  0  0  0  0
  9  8  2  0  0  0  0
 10 12  1  0  0  0  0
 11 10  1  0  0  0  0
 13 14  1  0  0  0  0
 13 12  1  0  0  0  0
 15 17  1  0  0  0  0
 15  1  1  0  0  0  0
 16 15  1  0  0  0  0
 17 18  1  6  0  0  0
 19 18  1  0  0  0  0
 20 17  1  0  0  0  0
 20 22  1  0  0  0  0
 21 22  1  0  0  0  0
M  END
>  <MODEL>
5

>  <REMARK>
  Name = ZINC50661256
                            x       y       z     vdW  Elec       q    Type
                         _______ _______ _______ _____ _____    ______ ____

>  <TORSDO>
F 9

>  <minimizedAffinity>
-6.5119470159975128

$$$$
ZINC50661256
 OpenBabel10211214333D

 22 22  0  0  1  0  0  0  0  0999 V2000
   51.6290   55.5360   20.0920 S   0  0  0  0  0  0  0  0  0  0  0  0
   52.0610   55.8550   18.7760 O   0  0  0  0  0  0  0  0  0  0  0  0
   52.4450   55.7480   21.2350 O   0  0  0  0  0  0  0  0  0  0  0  0
   50.1380   56.4350   20.3650 C   0  0  0  0  0  0  0  0  0  0  0  0
   50.0260   57.2740   21.4570 C   0  0  0  0  0  0  0  0  0  0  0  0
   48.8560   57.9800   21.6710 C   0  0  0  0  0  0  0  0  0  0  0  0
   47.7960   57.8490   20.7930 C   0  0  0  0  0  0  0  0  0  0  0  0
   47.9020   57.0150   19.6990 C   0  0  0  0  0  0  0  0  0  0  0  0
   49.0770   56.3080   19.4780 C   0  0  0  0  0  0  0  0  0  0  0  0
   49.1890   55.4650   18.3690 N   0  0  0  0  0  0  0  0  0  0  0  0
   49.8380   55.6610   17.6750 H   0  0  0  0  0  0  0  0  0  0  0  0
   48.3250   54.2880   18.2540 C   0  0  0  0  0  0  0  0  0  0  0  0
   48.1350   53.9380   16.7770 C   0  0  0  0  0  0  0  0  0  0  0  0
   47.6690   52.4860   16.6520 C   0  0  0  0  0  0  0  0  0  0  0  0
   51.2350   53.9270   20.0820 N   0  0  0  0  0  0  0  0  0  0  0  0
   50.3110   53.6540   19.9750 H   0  0  0  0  0  0  0  0  0  0  0  0
   52.2850   52.9160   20.2330 C   0  0  1  0  0  0  0  0  0  0  0  0
   51.9460   52.0020   21.4130 C   0  0  0  0  0  0  0  0  0  0  0  0
   50.6410   52.4670   22.0600 C   0  0  0  0  0  0  0  0  0  0  0  0
   52.3780   52.0820   18.9530 C   0  0  0  0  0  0  0  0  0  0  0  0
   50.4590   50.6040   18.3370 C   0  0  0  0  0  0  0  0  0  0  0  0
   51.0070   52.0310   18.2770 C   0  0  0  0  0  0  0  0  0  0  0  0
  1  4  1  0  0  0  0
  1  3  2  0  0  0  0
  2  1  2  0  0  0  0
  4  5  2  0  0  0  0
  5  6  1  0  0  0  0
  7  6  2  0  0  0  0
  8  7  1  0  0  0  0
  9  8  2  0  0  0  0
  9  4  1  0  0  0  0
 10  9  1  0  0  0  0
 11 10  1  0  0  0  0
 12 10  1  0  0  0  0
 13 12  1  0  0  0  0
 14 13  1  0  0  0  0
 15  1  1  0  0  0  0
 15 17  1  0  0  0  0
 16 15  1  0  0  0  0
 17 20  1  6  0  0  0
 17 18  1  0  0  0  0
 18 19  1  0  0  0  0
 22 21  1  0  0  0  0
 22 20  1  0  0  0  0
M  END
>  <MODEL>
6

>  <REMARK>
  Name = ZINC50661256
                            x       y       z     vdW  Elec       q    Type
                         _______ _______ _______ _____ _____    ______ ____

>  <TORSDO>
F 9

>  <minimizedAffinity>
-6.4379793480592786

$$$$
ZINC50661256
 OpenBabel10211214333D

 22 22  0  0  1  0  0  0  0  0999 V2000
   52.1960   51.9670   18.3750 S   0  0  0  0  0  0  0  0  0  0  0  0
   52.6900   50.7070   17.9400 O   0  0  0  0  0  0  0  0  0  0  0  0
   52.8000   53.1950   17.9960 O   0  0  0  0  0  0  0  0  0  0  0  0
   50.5130   52.0530   17.8610 C   0  0  0  0  0  0  0  0  0  0  0  0
   49.9220   50.9680   17.2440 C   0  0  0  0  0  0  0  0  0  0  0  0
   48.6020   51.0350   16.8390 C   0  0  0  0  0  0  0  0  0  0  0  0
   47.8690   52.1880   17.0510 C   0  0  0  0  0  0  0  0  0  0  0  0
   48.4520   53.2760   17.6680 C   0  0  0  0  0  0  0  0  0  0  0  0
   49.7770   53.2110   18.0800 C   0  0  0  0  0  0  0  0  0  0  0  0
   50.3700   54.3080   18.7090 N   0  0  0  0  0  0  0  0  0  0  0  0
   51.2730   54.2390   19.0560 H   0  0  0  0  0  0  0  0  0  0  0  0
   49.6270   55.5620   18.8470 C   0  0  0  0  0  0  0  0  0  0  0  0
   49.0890   55.6820   20.2750 C   0  0  0  0  0  0  0  0  0  0  0  0
   48.2020   56.9230   20.3830 C   0  0  0  0  0  0  0  0  0  0  0  0
   52.2010   51.9280   20.0310 N   0  0  0  0  0  0  0  0  0  0  0  0
   53.0090   52.1490   20.5190 H   0  0  0  0  0  0  0  0  0  0  0  0
   50.9830   51.5610   20.7590 C   0  0  1  0  0  0  0  0  0  0  0  0
   51.1190   50.1330   21.2920 C   0  0  0  0  0  0  0  0  0  0  0  0
   50.4010   49.1660   20.3500 C   0  0  0  0  0  0  0  0  0  0  0  0
   50.7780   52.5250   21.9290 C   0  0  0  0  0  0  0  0  0  0  0  0
   51.5260   54.6820   22.9460 C   0  0  0  0  0  0  0  0  0  0  0  0
   51.8000   53.6600   21.8410 C   0  0  0  0  0  0  0  0  0  0  0  0
  1 15  1  0  0  0  0
  2  1  2  0  0  0  0
  3  1  2  0  0  0  0
  4  9  1  0  0  0  0
  4  1  1  0  0  0  0
  5  4  2  0  0  0  0
  6  7  2  0  0  0  0
  6  5  1  0  0  0  0
  7  8  1  0  0  0  0
  8  9  2  0  0  0  0
  9 10  1  0  0  0  0
 10 12  1  0  0  0  0
 10 11  1  0  0  0  0
 12 13  1  0  0  0  0
 13 14  1  0  0  0  0
 15 16  1  0  0  0  0
 17 15  1  1  0  0  0
 17 18  1  0  0  0  0
 17 20  1  0  0  0  0
 19 18  1  0  0  0  0
 22 20  1  0  0  0  0
 22 21  1  0  0  0  0
M  END
>  <MODEL>
7

>  <REMARK>
  Name = ZINC50661256
                            x       y       z     vdW  Elec       q    Type
                         _______ _______ _______ _____ _____    ______ ____

>  <TORSDO>
F 9

>  <minimizedAffinity>
-6.4172566375560285

$$$$
ZINC50661256
 OpenBabel10211214333D

 22 22  0  0  1  0  0  0  0  0999 V2000
   50.3110   54.5230   19.4410 S   0  0  0  0  0  0  0  0  0  0  0  0
   51.4620   54.9420   18.7200 O   0  0  0  0  0  0  0  0  0  0  0  0
   48.9920   54.7150   18.9480 O   0  0  0  0  0  0  0  0  0  0  0  0
   50.4950   52.7940   19.7250 C   0  0  0  0  0  0  0  0  0  0  0  0
   50.8990   52.3360   20.9640 C   0  0  0  0  0  0  0  0  0  0  0  0
   51.0450   50.9790   21.1870 C   0  0  0  0  0  0  0  0  0  0  0  0
   50.7860   50.0770   20.1720 C   0  0  0  0  0  0  0  0  0  0  0  0
   50.3800   50.5280   18.9320 C   0  0  0  0  0  0  0  0  0  0  0  0
   50.2280   51.8900   18.7050 C   0  0  0  0  0  0  0  0  0  0  0  0
   49.8140   52.3490   17.4530 N   0  0  0  0  0  0  0  0  0  0  0  0
   50.0830   53.2290   17.1450 H   0  0  0  0  0  0  0  0  0  0  0  0
   48.9700   51.5040   16.6050 C   0  0  0  0  0  0  0  0  0  0  0  0
   47.5000   51.7150   16.9760 C   0  0  0  0  0  0  0  0  0  0  0  0
   46.8390   50.3600   17.2310 C   0  0  0  0  0  0  0  0  0  0  0  0
   50.3800   55.2730   20.9160 N   0  0  0  0  0  0  0  0  0  0  0  0
   50.1850   54.7730   21.7240 H   0  0  0  0  0  0  0  0  0  0  0  0
   50.7370   56.6910   21.0010 C   0  0  1  0  0  0  0  0  0  0  0  0
   49.6790   57.4350   21.8190 C   0  0  0  0  0  0  0  0  0  0  0  0
   48.4030   57.5810   20.9890 C   0  0  0  0  0  0  0  0  0  0  0  0
   52.1000   56.8350   21.6800 C   0  0  0  0  0  0  0  0  0  0  0  0
   54.1830   57.9250   20.8350 C   0  0  0  0  0  0  0  0  0  0  0  0
   52.7370   58.1640   21.2720 C   0  0  0  0  0  0  0  0  0  0  0  0
  1  4  1  0  0  0  0
  1 15  1  0  0  0  0
  2  1  2  0  0  0  0
  3  1  2  0  0  0  0
  4  5  2  0  0  0  0
  5  6  1  0  0  0  0
  7  6  2  0  0  0  0
  8  7  1  0  0  0  0
  9  8  2  0  0  0  0
  9  4  1  0  0  0  0
 10  9  1  0  0  0  0
 11 10  1  0  0  0  0
 12 13  1  0  0  0  0
 12 10  1  0  0  0  0
 13 14  1  0  0  0  0
 15 16  1  0  0  0  0
 17 15  1  1  0  0  0
 17 20  1  0  0  0  0
 17 18  1  0  0  0  0
 19 18  1  0  0  0  0
 21 22  1  0  0  0  0
 22 20  1  0  0  0  0
M  END
>  <MODEL>
8

>  <REMARK>
  Name = ZINC50661256
                            x       y       z     vdW  Elec       q    Type
                         _______ _______ _______ _____ _____    ______ ____

>  <TORSDO>
F 9

>  <minimizedAffinity>
-6.3393780480030282

$$$$
ZINC50661256
 OpenBabel10211214333D

 22 22  0  0  1  0  0  0  0  0999 V2000
   51.5940   53.2360   18.8980 S   0  0  0  0  0  0  0  0  0  0  0  0
   52.7970   53.0730   18.1580 O   0  0  0  0  0  0  0  0  0  0  0  0
   50.4560   53.8980   18.3650 O   0  0  0  0  0  0  0  0  0  0  0  0
   51.0670   51.6210   19.3630 C   0  0  0  0  0  0  0  0  0  0  0  0
   51.1600   51.2150   20.6800 C   0  0  0  0  0  0  0  0  0  0  0  0
   50.7460   49.9470   21.0450 C   0  0  0  0  0  0  0  0  0  0  0  0
   50.2370   49.0820   20.0940 C   0  0  0  0  0  0  0  0  0  0  0  0
   50.1400   49.4810   18.7760 C   0  0  0  0  0  0  0  0  0  0  0  0
   50.5500   50.7560   18.4060 C   0  0  0  0  0  0  0  0  0  0  0  0
   50.4490   51.1650   17.0750 N   0  0  0  0  0  0  0  0  0  0  0  0
   51.1540   51.7000   16.6770 H   0  0  0  0  0  0  0  0  0  0  0  0
   49.2770   50.7890   16.2800 C   0  0  0  0  0  0  0  0  0  0  0  0
   48.0790   51.6410   16.7040 C   0  0  0  0  0  0  0  0  0  0  0  0
   46.9450   50.7280   17.1730 C   0  0  0  0  0  0  0  0  0  0  0  0
   52.0010   54.0380   20.2890 N   0  0  0  0  0  0  0  0  0  0  0  0
   52.5770   53.6130   20.9430 H   0  0  0  0  0  0  0  0  0  0  0  0
   51.4910   55.3900   20.5300 C   0  0  1  0  0  0  0  0  0  0  0  0
   51.2920   55.5990   22.0330 C   0  0  0  0  0  0  0  0  0  0  0  0
   51.5660   54.2880   22.7710 C   0  0  0  0  0  0  0  0  0  0  0  0
   52.4960   56.4160   20.0030 C   0  0  0  0  0  0  0  0  0  0  0  0
   54.2330   58.0730   20.6990 C   0  0  0  0  0  0  0  0  0  0  0  0
   53.0260   57.2580   21.1660 C   0  0  0  0  0  0  0  0  0  0  0  0
  1  4  1  0  0  0  0
  1 15  1  0  0  0  0
  2  1  2  0  0  0  0
  3  1  2  0  0  0  0
  4  5  2  0  0  0  0
  5  6  1  0  0  0  0
  7  6  2  0  0  0  0
  8  7  1  0  0  0  0
  9  8  2  0  0  0  0
  9  4  1  0  0  0  0
 10  9  1  0  0  0  0
 11 10  1  0  0  0  0
 12 13  1  0  0  0  0
 12 10  1  0  0  0  0
 13 14  1  0  0  0  0
 15 17  1  0  0  0  0
 15 16  1  0  0  0  0
 17 20  1  1  0  0  0
 17 18  1  0  0  0  0
 18 19  1  0  0  0  0
 20 22  1  0  0  0  0
 21 22  1  0  0  0  0
M  END
>  <MODEL>
9

>  <REMARK>
  Name = ZINC50661256
                            x       y       z     vdW  Elec       q    Type
                         _______ _______ _______ _____ _____    ______ ____

>  <TORSDO>
F 9

>  <minimizedAffinity>
-6.2899424338300944

$$$$
ZINC32912153
 OpenBabel10211214353D

 24 24  0  0  1  0  0  0  0  0999 V2000
   50.2020   55.3410   19.5790 C   0  0  0  0  0  0  0  0  0  0  0  0
   50.2780   53.9960   19.6420 N   0  0  0  0  0  0  0  0  0  0  0  0
   50.0340   53.4750   20.5780 H   0  0  0  0  0  0  0  0  0  0  0  0
   50.3800   55.9100   18.5240 O   0  0  0  0  0  0  0  0  0  0  0  0
   50.6860   53.2310   18.4620 C   0  0  1  0  0  0  0  0  0  0  0  0
   52.1660   52.8600   18.5800 C   0  0  0  0  0  0  0  0  0  0  0  0
   49.8600   51.9740   18.3680 C   0  0  0  0  0  0  0  0  0  0  0  0
   50.2410   50.8420   19.0640 C   0  0  0  0  0  0  0  0  0  0  0  0
   49.4840   49.6900   18.9780 C   0  0  0  0  0  0  0  0  0  0  0  0
   48.3440   49.6680   18.1950 C   0  0  0  0  0  0  0  0  0  0  0  0
   47.9620   50.8000   17.4990 C   0  0  0  0  0  0  0  0  0  0  0  0
   48.7180   51.9540   17.5890 C   0  0  0  0  0  0  0  0  0  0  0  0
   48.2990   53.1900   16.8340 C   0  0  0  0  0  0  0  0  0  0  0  0
   49.8950   56.1360   20.8220 C   0  0  1  0  0  0  0  0  0  0  0  0
   52.0380   56.0670   21.9820 C   0  0  0  0  0  0  0  0  0  0  0  0
   51.1190   56.7820   21.3030 N   0  0  0  0  0  0  0  0  0  0  0  0
   51.2870   57.8520   21.1100 H   0  0  0  0  0  0  0  0  0  0  0  0
   51.8520   54.8860   22.1940 O   0  0  0  0  0  0  0  0  0  0  0  0
   53.1610   56.6620   22.4230 O   0  0  0  0  0  0  0  0  0  0  0  0
   54.3190   57.8770   20.6580 C   0  0  0  0  0  0  0  0  0  0  0  0
   53.4490   57.9900   21.9110 C   0  0  0  0  0  0  0  0  0  0  0  0
   48.8480   57.2030   20.4990 C   0  0  0  0  0  0  0  0  0  0  0  0
   48.7030   58.1520   21.6900 C   0  0  0  0  0  0  0  0  0  0  0  0
   47.5040   56.5300   20.2160 C   0  0  0  0  0  0  0  0  0  0  0  0
  1  2  1  0  0  0  0
  2  3  1  0  0  0  0
  4  1  2  0  0  0  0
  5  7  1  1  0  0  0
  5  6  1  0  0  0  0
  5  2  1  0  0  0  0
  7  8  2  0  0  0  0
  9  8  1  0  0  0  0
 10  9  2  0  0  0  0
 11 12  2  0  0  0  0
 11 10  1  0  0  0  0
 12  7  1  0  0  0  0
 13 12  1  0  0  0  0
 14  1  1  6  0  0  0
 14 16  1  0  0  0  0
 15 18  2  0  0  0  0
 15 19  1  0  0  0  0
 16 15  1  0  0  0  0
 17 16  1  0  0  0  0
 20 21  1  0  0  0  0
 21 19  1  0  0  0  0
 22 14  1  0  0  0  0
 22 23  1  0  0  0  0
 24 22  1  0  0  0  0
M  END
>  <MODEL>
1

>  <REMARK>
  Name = ZINC32912153
                            x       y       z     vdW  Elec       q    Type
                         _______ _______ _______ _____ _____    ______ ____

>  <TORSDO>
F 7

>  <minimizedAffinity>
-7.725096661600988

$$$$
ZINC32912153
 OpenBabel10211214353D

 24 24  0  0  1  0  0  0  0  0999 V2000
   50.7100   53.5510   19.0490 C   0  0  0  0  0  0  0  0  0  0  0  0
   49.8880   52.4860   19.1380 N   0  0  0  0  0  0  0  0  0  0  0  0
   49.0160   52.5190   19.8070 H   0  0  0  0  0  0  0  0  0  0  0  0
   51.6150   53.5520   18.2430 O   0  0  0  0  0  0  0  0  0  0  0  0
   50.1560   51.2860   18.3430 C   0  0  1  0  0  0  0  0  0  0  0  0
   51.1520   50.3940   19.0870 C   0  0  0  0  0  0  0  0  0  0  0  0
   48.8720   50.5300   18.1240 C   0  0  0  0  0  0  0  0  0  0  0  0
   48.6420   49.3450   18.7990 C   0  0  0  0  0  0  0  0  0  0  0  0
   47.4640   48.6530   18.5980 C   0  0  0  0  0  0  0  0  0  0  0  0
   46.5130   49.1440   17.7220 C   0  0  0  0  0  0  0  0  0  0  0  0
   46.7410   50.3290   17.0480 C   0  0  0  0  0  0  0  0  0  0  0  0
   47.9180   51.0240   17.2530 C   0  0  0  0  0  0  0  0  0  0  0  0
   48.1660   52.3190   16.5210 C   0  0  0  0  0  0  0  0  0  0  0  0
   50.5010   54.7400   19.9500 C   0  0  1  0  0  0  0  0  0  0  0  0
   52.4430   56.0790   20.5640 C   0  0  0  0  0  0  0  0  0  0  0  0
   51.5050   55.7640   19.6490 N   0  0  0  0  0  0  0  0  0  0  0  0
   51.4930   56.2750   18.6740 H   0  0  0  0  0  0  0  0  0  0  0  0
   52.4560   55.5150   21.6390 O   0  0  0  0  0  0  0  0  0  0  0  0
   53.3640   57.0200   20.2860 O   0  0  0  0  0  0  0  0  0  0  0  0
   52.8500   58.9170   21.7250 C   0  0  0  0  0  0  0  0  0  0  0  0
   53.8560   57.8110   21.4000 C   0  0  0  0  0  0  0  0  0  0  0  0
   49.1020   55.3150   19.7210 C   0  0  0  0  0  0  0  0  0  0  0  0
   48.9830   55.8100   18.2790 C   0  0  0  0  0  0  0  0  0  0  0  0
   48.8660   56.4820   20.6830 C   0  0  0  0  0  0  0  0  0  0  0  0
  1  2  1  0  0  0  0
  2  3  1  0  0  0  0
  4  1  2  0  0  0  0
  5  7  1  1  0  0  0
  5  6  1  0  0  0  0
  5  2  1  0  0  0  0
  7  8  2  0  0  0  0
  9  8  1  0  0  0  0
 10  9  2  0  0  0  0
 11 12  2  0  0  0  0
 11 10  1  0  0  0  0
 12  7  1  0  0  0  0
 13 12  1  0  0  0  0
 14  1  1  6  0  0  0
 15 18  2  0  0  0  0
 16 14  1  0  0  0  0
 16 15  1  0  0  0  0
 17 16  1  0  0  0  0
 19 15  1  0  0  0  0
 19 21  1  0  0  0  0
 21 20  1  0  0  0  0
 22 14  1  0  0  0  0
 22 24  1  0  0  0  0
 23 22  1  0  0  0  0
M  END
>  <MODEL>
2

>  <REMARK>
  Name = ZINC32912153
                            x       y       z     vdW  Elec       q    Type
                         _______ _______ _______ _____ _____    ______ ____

>  <TORSDO>
F 7

>  <minimizedAffinity>
-7.6709205348845622

$$$$
ZINC32912153
 OpenBabel10211214353D

 24 24  0  0  1  0  0  0  0  0999 V2000
   50.9530   52.4330   19.1320 C   0  0  0  0  0  0  0  0  0  0  0  0
   49.9620   51.5360   19.3060 N   0  0  0  0  0  0  0  0  0  0  0  0
   49.1380   51.7540   20.0000 H   0  0  0  0  0  0  0  0  0  0  0  0
   51.8100   52.2360   18.2970 O   0  0  0  0  0  0  0  0  0  0  0  0
   49.9830   50.2700   18.5690 C   0  0  1  0  0  0  0  0  0  0  0  0
   50.6560   49.1940   19.4230 C   0  0  0  0  0  0  0  0  0  0  0  0
   48.5710   49.8500   18.2510 C   0  0  0  0  0  0  0  0  0  0  0  0
   47.9830   48.8150   18.9540 C   0  0  0  0  0  0  0  0  0  0  0  0
   46.6890   48.4300   18.6630 C   0  0  0  0  0  0  0  0  0  0  0  0
   45.9800   49.0790   17.6690 C   0  0  0  0  0  0  0  0  0  0  0  0
   46.5670   50.1150   16.9670 C   0  0  0  0  0  0  0  0  0  0  0  0
   47.8610   50.5030   17.2610 C   0  0  0  0  0  0  0  0  0  0  0  0
   48.5000   51.6360   16.4990 C   0  0  0  0  0  0  0  0  0  0  0  0
   50.9930   53.6830   19.9730 C   0  0  1  0  0  0  0  0  0  0  0  0
   49.9850   55.7840   19.2610 C   0  0  0  0  0  0  0  0  0  0  0  0
   49.8230   54.5120   19.6740 N   0  0  0  0  0  0  0  0  0  0  0  0
   48.8110   54.0940   19.7870 H   0  0  0  0  0  0  0  0  0  0  0  0
   51.1010   56.2440   19.1360 O   0  0  0  0  0  0  0  0  0  0  0  0
   48.9080   56.5440   18.9870 O   0  0  0  0  0  0  0  0  0  0  0  0
   48.4840   57.6830   21.0980 C   0  0  0  0  0  0  0  0  0  0  0  0
   47.9330   56.7140   20.0500 C   0  0  0  0  0  0  0  0  0  0  0  0
   50.9830   53.3010   21.4540 C   0  0  0  0  0  0  0  0  0  0  0  0
   51.5140   54.4700   22.2860 C   0  0  0  0  0  0  0  0  0  0  0  0
   51.8710   52.0750   21.6720 C   0  0  0  0  0  0  0  0  0  0  0  0
  1  2  1  0  0  0  0
  2  3  1  0  0  0  0
  4  1  2  0  0  0  0
  5  7  1  1  0  0  0
  5  2  1  0  0  0  0
  5  6  1  0  0  0  0
  7  8  2  0  0  0  0
  9  8  1  0  0  0  0
 10  9  2  0  0  0  0
 11 12  2  0  0  0  0
 11 10  1  0  0  0  0
 12  7  1  0  0  0  0
 13 12  1  0  0  0  0
 14  1  1  1  0  0  0
 14 22  1  0  0  0  0
 15 16  1  0  0  0  0
 16 17  1  0  0  0  0
 16 14  1  0  0  0  0
 18 15  2  0  0  0  0
 19 15  1  0  0  0  0
 19 21  1  0  0  0  0
 21 20  1  0  0  0  0
 22 24  1  0  0  0  0
 22 23  1  0  0  0  0
M  END
>  <MODEL>
3

>  <REMARK>
  Name = ZINC32912153
                            x       y       z     vdW  Elec       q    Type
                         _______ _______ _______ _____ _____    ______ ____

>  <TORSDO>
F 7

>  <minimizedAffinity>
-7.3531092243772758

$$$$
ZINC32912153
 OpenBabel10211214353D

 24 24  0  0  1  0  0  0  0  0999 V2000
   50.4410   53.1740   18.9100 C   0  0  0  0  0  0  0  0  0  0  0  0
   49.4690   54.0810   19.1370 N   0  0  0  0  0  0  0  0  0  0  0  0
   48.5650   53.7920   19.6910 H   0  0  0  0  0  0  0  0  0  0  0  0
   51.4780   53.5150   18.3830 O   0  0  0  0  0  0  0  0  0  0  0  0
   49.6200   55.4530   18.6440 C   0  0  1  0  0  0  0  0  0  0  0  0
   48.6670   55.6800   17.4690 C   0  0  0  0  0  0  0  0  0  0  0  0
   49.2930   56.4220   19.7500 C   0  0  0  0  0  0  0  0  0  0  0  0
   48.0050   56.9060   19.8890 C   0  0  0  0  0  0  0  0  0  0  0  0
   47.7060   57.7940   20.9030 C   0  0  0  0  0  0  0  0  0  0  0  0
   48.6940   58.2020   21.7800 C   0  0  0  0  0  0  0  0  0  0  0  0
   49.9820   57.7180   21.6430 C   0  0  0  0  0  0  0  0  0  0  0  0
   50.2800   56.8250   20.6310 C   0  0  0  0  0  0  0  0  0  0  0  0
   51.6830   56.2940   20.4840 C   0  0  0  0  0  0  0  0  0  0  0  0
   50.2370   51.7370   19.3150 C   0  0  1  0  0  0  0  0  0  0  0  0
   49.3940   50.7180   17.2680 C   0  0  0  0  0  0  0  0  0  0  0  0
   50.4060   50.8710   18.1450 N   0  0  0  0  0  0  0  0  0  0  0  0
   51.3600   50.3470   17.9820 H   0  0  0  0  0  0  0  0  0  0  0  0
   48.3420   51.2970   17.4470 O   0  0  0  0  0  0  0  0  0  0  0  0
   49.5510   49.9230   16.1930 O   0  0  0  0  0  0  0  0  0  0  0  0
   48.6430   47.7310   16.7460 C   0  0  0  0  0  0  0  0  0  0  0  0
   48.4740   48.9940   15.8990 C   0  0  0  0  0  0  0  0  0  0  0  0
   51.2640   51.3560   20.3820 C   0  0  0  0  0  0  0  0  0  0  0  0
   51.1060   49.8770   20.7380 C   0  0  0  0  0  0  0  0  0  0  0  0
   51.0410   52.2090   21.6330 C   0  0  0  0  0  0  0  0  0  0  0  0
  1  2  1  0  0  0  0
  1 14  1  0  0  0  0
  2  3  1  0  0  0  0
  4  1  2  0  0  0  0
  5  6  1  1  0  0  0
  5  2  1  0  0  0  0
  5  7  1  0  0  0  0
  7  8  2  0  0  0  0
  7 12  1  0  0  0  0
  8  9  1  0  0  0  0
  9 10  2  0  0  0  0
 11 10  1  0  0  0  0
 12 11  2  0  0  0  0
 13 12  1  0  0  0  0
 14 16  1  6  0  0  0
 14 22  1  0  0  0  0
 15 18  2  0  0  0  0
 15 16  1  0  0  0  0
 17 16  1  0  0  0  0
 19 15  1  0  0  0  0
 21 19  1  0  0  0  0
 21 20  1  0  0  0  0
 22 23  1  0  0  0  0
 22 24  1  0  0  0  0
M  END
>  <MODEL>
4

>  <REMARK>
  Name = ZINC32912153
                            x       y       z     vdW  Elec       q    Type
                         _______ _______ _______ _____ _____    ______ ____

>  <TORSDO>
F 7

>  <minimizedAffinity>
-7.1947742035293443

$$$$
ZINC32912153
 OpenBabel10211214353D

 24 24  0  0  1  0  0  0  0  0999 V2000
   50.3950   51.1420   17.7480 C   0  0  0  0  0  0  0  0  0  0  0  0
   50.0690   49.9580   17.1920 N   0  0  0  0  0  0  0  0  0  0  0  0
   50.5740   49.0390   17.5200 H   0  0  0  0  0  0  0  0  0  0  0  0
   49.7750   52.1410   17.4560 O   0  0  0  0  0  0  0  0  0  0  0  0
   49.0410   49.8980   16.1510 C   0  0  1  0  0  0  0  0  0  0  0  0
   49.6460   49.3240   14.8680 C   0  0  0  0  0  0  0  0  0  0  0  0
   47.9100   49.0140   16.6110 C   0  0  0  0  0  0  0  0  0  0  0  0
   48.0210   47.6400   16.5100 C   0  0  0  0  0  0  0  0  0  0  0  0
   46.9850   46.8300   16.9330 C   0  0  0  0  0  0  0  0  0  0  0  0
   45.8360   47.3930   17.4570 C   0  0  0  0  0  0  0  0  0  0  0  0
   45.7250   48.7680   17.5600 C   0  0  0  0  0  0  0  0  0  0  0  0
   46.7640   49.5780   17.1410 C   0  0  0  0  0  0  0  0  0  0  0  0
   46.6460   51.0760   17.2570 C   0  0  0  0  0  0  0  0  0  0  0  0
   51.5310   51.2220   18.7350 C   0  0  1  0  0  0  0  0  0  0  0  0
   52.1710   53.4660   19.4400 C   0  0  0  0  0  0  0  0  0  0  0  0
   51.3570   52.4020   19.5860 N   0  0  0  0  0  0  0  0  0  0  0  0
   50.5600   52.4190   20.3450 H   0  0  0  0  0  0  0  0  0  0  0  0
   53.0500   53.4470   18.6020 O   0  0  0  0  0  0  0  0  0  0  0  0
   52.0100   54.5490   20.2220 O   0  0  0  0  0  0  0  0  0  0  0  0
   51.6100   55.6460   22.3600 C   0  0  0  0  0  0  0  0  0  0  0  0
   51.6700   54.3120   21.6140 C   0  0  0  0  0  0  0  0  0  0  0  0
   51.5420   49.9640   19.6050 C   0  0  0  0  0  0  0  0  0  0  0  0
   50.9270   50.2800   20.9690 C   0  0  0  0  0  0  0  0  0  0  0  0
   52.9830   49.4860   19.7930 C   0  0  0  0  0  0  0  0  0  0  0  0
  2  3  1  0  0  0  0
  2  1  1  0  0  0  0
  4  1  2  0  0  0  0
  5  6  1  1  0  0  0
  5  7  1  0  0  0  0
  5  2  1  0  0  0  0
  7 12  1  0  0  0  0
  8  7  2  0  0  0  0
  8  9  1  0  0  0  0
  9 10  2  0  0  0  0
 10 11  1  0  0  0  0
 12 13  1  0  0  0  0
 12 11  2  0  0  0  0
 14  1  1  1  0  0  0
 14 16  1  0  0  0  0
 14 22  1  0  0  0  0
 15 16  1  0  0  0  0
 15 19  1  0  0  0  0
 16 17  1  0  0  0  0
 18 15  2  0  0  0  0
 19 21  1  0  0  0  0
 21 20  1  0  0  0  0
 22 24  1  0  0  0  0
 22 23  1  0  0  0  0
M  END
>  <MODEL>
5

>  <REMARK>
  Name = ZINC32912153
                            x       y       z     vdW  Elec       q    Type
                         _______ _______ _______ _____ _____    ______ ____

>  <TORSDO>
F 7

>  <minimizedAffinity>
-7.1073631140669393

$$$$
ZINC32912153
 OpenBabel10211214353D

 24 24  0  0  1  0  0  0  0  0999 V2000
   50.2520   51.2820   18.6390 C   0  0  0  0  0  0  0  0  0  0  0  0
   49.9120   52.5620   18.8900 N   0  0  0  0  0  0  0  0  0  0  0  0
   48.9720   52.9700   18.4930 H   0  0  0  0  0  0  0  0  0  0  0  0
   51.2410   50.8050   19.1530 O   0  0  0  0  0  0  0  0  0  0  0  0
   50.7970   53.4100   19.6930 C   0  0  1  0  0  0  0  0  0  0  0  0
   52.0400   53.7680   18.8760 C   0  0  0  0  0  0  0  0  0  0  0  0
   50.0700   54.6720   20.0790 C   0  0  0  0  0  0  0  0  0  0  0  0
   48.9510   55.0700   19.3710 C   0  0  0  0  0  0  0  0  0  0  0  0
   48.2850   56.2270   19.7250 C   0  0  0  0  0  0  0  0  0  0  0  0
   48.7340   56.9870   20.7890 C   0  0  0  0  0  0  0  0  0  0  0  0
   49.8520   56.5880   21.4990 C   0  0  0  0  0  0  0  0  0  0  0  0
   50.5160   55.4290   21.1470 C   0  0  0  0  0  0  0  0  0  0  0  0
   51.7320   54.9910   21.9240 C   0  0  0  0  0  0  0  0  0  0  0  0
   49.4020   50.4450   17.7190 C   0  0  1  0  0  0  0  0  0  0  0  0
   47.8930   48.6640   18.4210 C   0  0  0  0  0  0  0  0  0  0  0  0
   48.2190   49.9710   18.4430 N   0  0  0  0  0  0  0  0  0  0  0  0
   47.5980   50.6840   19.0060 H   0  0  0  0  0  0  0  0  0  0  0  0
   48.5790   47.8770   17.8000 O   0  0  0  0  0  0  0  0  0  0  0  0
   46.8060   48.2310   19.0860 O   0  0  0  0  0  0  0  0  0  0  0  0
   45.0250   48.7940   17.5230 C   0  0  0  0  0  0  0  0  0  0  0  0
   45.7260   47.6720   18.2920 C   0  0  0  0  0  0  0  0  0  0  0  0
   48.9630   51.2870   16.5210 C   0  0  0  0  0  0  0  0  0  0  0  0
   47.5380   51.7950   16.7490 C   0  0  0  0  0  0  0  0  0  0  0  0
   49.0030   50.4320   15.2530 C   0  0  0  0  0  0  0  0  0  0  0  0
  1  2  1  0  0  0  0
  1  4  2  0  0  0  0
  2  5  1  0  0  0  0
  3  2  1  0  0  0  0
  5  6  1  6  0  0  0
  5  7  1  0  0  0  0
  7 12  2  0  0  0  0
  8  9  2  0  0  0  0
  8  7  1  0  0  0  0
  9 10  1  0  0  0  0
 10 11  2  0  0  0  0
 12 11  1  0  0  0  0
 12 13  1  0  0  0  0
 14 22  1  1  0  0  0
 14 16  1  0  0  0  0
 14  1  1  0  0  0  0
 15 16  1  0  0  0  0
 15 19  1  0  0  0  0
 16 17  1  0  0  0  0
 18 15  2  0  0  0  0
 20 21  1  0  0  0  0
 21 19  1  0  0  0  0
 22 23  1  0  0  0  0
 24 22  1  0  0  0  0
M  END
>  <MODEL>
6

>  <REMARK>
  Name = ZINC32912153
                            x       y       z     vdW  Elec       q    Type
                         _______ _______ _______ _____ _____    ______ ____

>  <TORSDO>
F 7

>  <minimizedAffinity>
-6.9879003835850106

$$$$
ZINC32912153
 OpenBabel10211214353D

 24 24  0  0  1  0  0  0  0  0999 V2000
   49.2190   51.6750   16.9690 C   0  0  0  0  0  0  0  0  0  0  0  0
   49.8260   52.0650   18.1080 N   0  0  0  0  0  0  0  0  0  0  0  0
   50.3080   51.3200   18.7570 H   0  0  0  0  0  0  0  0  0  0  0  0
   48.7710   52.5040   16.2070 O   0  0  0  0  0  0  0  0  0  0  0  0
   49.8430   53.4820   18.4800 C   0  0  1  0  0  0  0  0  0  0  0  0
   48.4090   54.0090   18.5460 C   0  0  0  0  0  0  0  0  0  0  0  0
   50.4980   53.6390   19.8280 C   0  0  0  0  0  0  0  0  0  0  0  0
   50.4360   52.6120   20.7520 C   0  0  0  0  0  0  0  0  0  0  0  0
   51.0360   52.7570   21.9870 C   0  0  0  0  0  0  0  0  0  0  0  0
   51.7000   53.9290   22.3020 C   0  0  0  0  0  0  0  0  0  0  0  0
   51.7640   54.9550   21.3780 C   0  0  0  0  0  0  0  0  0  0  0  0
   51.1670   54.8090   20.1400 C   0  0  0  0  0  0  0  0  0  0  0  0
   51.2400   55.9260   19.1310 C   0  0  0  0  0  0  0  0  0  0  0  0
   49.1000   50.2090   16.6440 C   0  0  1  0  0  0  0  0  0  0  0  0
   48.1370   48.9990   18.5270 C   0  0  0  0  0  0  0  0  0  0  0  0
   47.9530   49.6410   17.3570 N   0  0  0  0  0  0  0  0  0  0  0  0
   46.9410   49.7400   16.9360 H   0  0  0  0  0  0  0  0  0  0  0  0
   49.2540   48.8890   18.9910 O   0  0  0  0  0  0  0  0  0  0  0  0
   47.0820   48.4770   19.1810 O   0  0  0  0  0  0  0  0  0  0  0  0
   45.0080   47.2030   19.2660 C   0  0  0  0  0  0  0  0  0  0  0  0
   46.0020   47.9450   18.3700 C   0  0  0  0  0  0  0  0  0  0  0  0
   48.9010   50.0340   15.1370 C   0  0  0  0  0  0  0  0  0  0  0  0
   47.7720   49.0340   14.8840 C   0  0  0  0  0  0  0  0  0  0  0  0
   50.1950   49.5140   14.5080 C   0  0  0  0  0  0  0  0  0  0  0  0
  1  2  1  0  0  0  0
  2  3  1  0  0  0  0
  4  1  2  0  0  0  0
  5  2  1  1  0  0  0
  5  6  1  0  0  0  0
  5  7  1  0  0  0  0
  7 12  2  0  0  0  0
  7  8  1  0  0  0  0
  8  9  2  0  0  0  0
  9 10  1  0  0  0  0
 11 10  2  0  0  0  0
 12 11  1  0  0  0  0
 13 12  1  0  0  0  0
 14 22  1  6  0  0  0
 14  1  1  0  0  0  0
 14 16  1  0  0  0  0
 15 18  2  0  0  0  0
 15 19  1  0  0  0  0
 16 15  1  0  0  0  0
 17 16  1  0  0  0  0
 21 19  1  0  0  0  0
 21 20  1  0  0  0  0
 23 22  1  0  0  0  0
 24 22  1  0  0  0  0
M  END
>  <MODEL>
7

>  <REMARK>
  Name = ZINC32912153
                            x       y       z     vdW  Elec       q    Type
                         _______ _______ _______ _____ _____    ______ ____

>  <TORSDO>
F 7

>  <minimizedAffinity>
-6.8947117299163088

$$$$
ZINC32912153
 OpenBabel10211214353D

 24 24  0  0  1  0  0  0  0  0999 V2000
   48.9590   53.3690   17.5520 C   0  0  0  0  0  0  0  0  0  0  0  0
   49.4110   53.6950   18.7800 N   0  0  0  0  0  0  0  0  0  0  0  0
   50.0150   52.9760   19.3520 H   0  0  0  0  0  0  0  0  0  0  0  0
   48.3740   54.1930   16.8830 O   0  0  0  0  0  0  0  0  0  0  0  0
   49.0960   55.0060   19.3510 C   0  0  1  0  0  0  0  0  0  0  0  0
   47.6350   55.0270   19.8060 C   0  0  0  0  0  0  0  0  0  0  0  0
   49.9930   55.2680   20.5330 C   0  0  0  0  0  0  0  0  0  0  0  0
   50.6640   54.2210   21.1380 C   0  0  0  0  0  0  0  0  0  0  0  0
   51.4860   54.4610   22.2210 C   0  0  0  0  0  0  0  0  0  0  0  0
   51.6400   55.7490   22.7020 C   0  0  0  0  0  0  0  0  0  0  0  0
   50.9710   56.7960   22.0960 C   0  0  0  0  0  0  0  0  0  0  0  0
   50.1510   56.5560   21.0100 C   0  0  0  0  0  0  0  0  0  0  0  0
   49.4250   57.6990   20.3470 C   0  0  0  0  0  0  0  0  0  0  0  0
   49.1840   51.9810   17.0110 C   0  0  1  0  0  0  0  0  0  0  0  0
   50.7710   50.5820   18.2220 C   0  0  0  0  0  0  0  0  0  0  0  0
   49.5220   51.0760   18.1130 N   0  0  0  0  0  0  0  0  0  0  0  0
   48.7550   50.8000   18.8530 H   0  0  0  0  0  0  0  0  0  0  0  0
   51.6170   50.8870   17.4060 O   0  0  0  0  0  0  0  0  0  0  0  0
   51.0800   49.7510   19.2340 O   0  0  0  0  0  0  0  0  0  0  0  0
   52.4270   50.9370   20.8810 C   0  0  0  0  0  0  0  0  0  0  0  0
   52.4160   49.8610   19.7930 C   0  0  0  0  0  0  0  0  0  0  0  0
   47.9110   51.4890   16.3210 C   0  0  0  0  0  0  0  0  0  0  0  0
   47.0660   50.6910   17.3150 C   0  0  0  0  0  0  0  0  0  0  0  0
   48.2850   50.5960   15.1360 C   0  0  0  0  0  0  0  0  0  0  0  0
  1  2  1  0  0  0  0
  2  3  1  0  0  0  0
  4  1  2  0  0  0  0
  5  2  1  1  0  0  0
  5  6  1  0  0  0  0
  5  7  1  0  0  0  0
  7 12  2  0  0  0  0
  7  8  1  0  0  0  0
  8  9  2  0  0  0  0
  9 10  1  0  0  0  0
 11 10  2  0  0  0  0
 12 11  1  0  0  0  0
 13 12  1  0  0  0  0
 14 22  1  1  0  0  0
 14  1  1  0  0  0  0
 14 16  1  0  0  0  0
 15 19  1  0  0  0  0
 16 15  1  0  0  0  0
 16 17  1  0  0  0  0
 18 15  2  0  0  0  0
 19 21  1  0  0  0  0
 21 20  1  0  0  0  0
 22 23  1  0  0  0  0
 24 22  1  0  0  0  0
M  END
>  <MODEL>
8

>  <REMARK>
  Name = ZINC32912153
                            x       y       z     vdW  Elec       q    Type
                         _______ _______ _______ _____ _____    ______ ____

>  <TORSDO>
F 7

>  <minimizedAffinity>
-6.7831626362006912

$$$$
ZINC32912153
 OpenBabel10211214353D

 24 24  0  0  1  0  0  0  0  0999 V2000
   49.0350   49.9770   16.8550 C   0  0  0  0  0  0  0  0  0  0  0  0
   48.2230   48.9180   17.0430 N   0  0  0  0  0  0  0  0  0  0  0  0
   47.6020   48.8550   17.9480 H   0  0  0  0  0  0  0  0  0  0  0  0
   49.6480   50.0950   15.8150 O   0  0  0  0  0  0  0  0  0  0  0  0
   48.1670   47.8520   16.0400 C   0  0  1  0  0  0  0  0  0  0  0  0
   48.7370   46.5630   16.6350 C   0  0  0  0  0  0  0  0  0  0  0  0
   46.7360   47.6250   15.6270 C   0  0  0  0  0  0  0  0  0  0  0  0
   45.9090   46.8350   16.4040 C   0  0  0  0  0  0  0  0  0  0  0  0
   44.5970   46.6270   16.0260 C   0  0  0  0  0  0  0  0  0  0  0  0
   44.1090   47.2080   14.8700 C   0  0  0  0  0  0  0  0  0  0  0  0
   44.9350   47.9990   14.0930 C   0  0  0  0  0  0  0  0  0  0  0  0
   46.2470   48.2110   14.4740 C   0  0  0  0  0  0  0  0  0  0  0  0
   47.1470   49.0770   13.6300 C   0  0  0  0  0  0  0  0  0  0  0  0
   49.1800   51.0160   17.9360 C   0  0  1  0  0  0  0  0  0  0  0  0
   50.6930   49.9490   19.5210 C   0  0  0  0  0  0  0  0  0  0  0  0
   50.4940   50.8830   18.5700 N   0  0  0  0  0  0  0  0  0  0  0  0
   51.3200   51.5450   18.2670 H   0  0  0  0  0  0  0  0  0  0  0  0
   49.7830   49.2180   19.8540 O   0  0  0  0  0  0  0  0  0  0  0  0
   51.9010   49.8280   20.1020 O   0  0  0  0  0  0  0  0  0  0  0  0
   51.8840   51.7750   21.5660 C   0  0  0  0  0  0  0  0  0  0  0  0
   52.6050   51.0570   20.4230 C   0  0  0  0  0  0  0  0  0  0  0  0
   49.0480   52.4120   17.3250 C   0  0  0  0  0  0  0  0  0  0  0  0
   49.5780   53.4540   18.3120 C   0  0  0  0  0  0  0  0  0  0  0  0
   47.5770   52.6990   17.0200 C   0  0  0  0  0  0  0  0  0  0  0  0
  1  2  1  0  0  0  0
  2  3  1  0  0  0  0
  4  1  2  0  0  0  0
  5  7  1  1  0  0  0
  5  6  1  0  0  0  0
  5  2  1  0  0  0  0
  7  8  2  0  0  0  0
  9  8  1  0  0  0  0
 10  9  2  0  0  0  0
 11 12  2  0  0  0  0
 11 10  1  0  0  0  0
 12  7  1  0  0  0  0
 13 12  1  0  0  0  0
 14  1  1  6  0  0  0
 14 16  1  0  0  0  0
 15 18  2  0  0  0  0
 15 19  1  0  0  0  0
 16 15  1  0  0  0  0
 17 16  1  0  0  0  0
 19 21  1  0  0  0  0
 21 20  1  0  0  0  0
 22 14  1  0  0  0  0
 22 23  1  0  0  0  0
 24 22  1  0  0  0  0
M  END
>  <MODEL>
9

>  <REMARK>
  Name = ZINC32912153
                            x       y       z     vdW  Elec       q    Type
                         _______ _______ _______ _____ _____    ______ ____

>  <TORSDO>
F 7

>  <minimizedAffinity>
-6.7157558790245879

$$$$
ZINC48066364
 OpenBabel10211214363D

 24 24  0  0  1  0  0  0  0  0999 V2000
   47.7750   50.8210   17.2680 C   0  0  0  0  0  0  0  0  0  0  0  0
   47.2500   52.0840   16.9740 C   0  0  0  0  0  0  0  0  0  0  0  0
   47.9330   53.2160   17.3560 C   0  0  0  0  0  0  0  0  0  0  0  0
   49.1440   53.1050   18.0320 C   0  0  0  0  0  0  0  0  0  0  0  0
   49.6700   51.8510   18.3260 C   0  0  0  0  0  0  0  0  0  0  0  0
   48.9910   50.7130   17.9540 C   0  0  0  0  0  0  0  0  0  0  0  0
   49.8340   54.2550   18.4170 N   0  0  0  0  0  0  0  0  0  0  0  0
   50.5350   54.6120   17.8510 H   0  0  0  0  0  0  0  0  0  0  0  0
   49.5240   54.8700   19.5760 C   0  0  0  0  0  0  0  0  0  0  0  0
   50.1240   56.0320   19.9040 N   0  0  0  0  0  0  0  0  0  0  0  0
   50.7790   56.4250   19.3060 H   0  0  0  0  0  0  0  0  0  0  0  0
   48.7020   54.3770   20.3260 O   0  0  0  0  0  0  0  0  0  0  0  0
   49.7870   56.7000   21.1630 C   0  0  2  0  0  0  0  0  0  0  0  0
   48.8680   57.8900   20.8790 C   0  0  0  0  0  0  0  0  0  0  0  0
   51.0680   57.1950   21.8370 C   0  0  0  0  0  0  0  0  0  0  0  0
   52.0080   57.7770   20.7800 C   0  0  0  0  0  0  0  0  0  0  0  0
   51.7570   56.0240   22.5430 C   0  0  0  0  0  0  0  0  0  0  0  0
   45.7890   49.3970   17.3030 C   0  0  0  0  0  0  0  0  0  0  0  0
   47.0480   49.6080   16.8620 C   0  0  0  0  0  0  0  0  0  0  0  0
   45.0890   48.2280   16.9120 C   0  0  0  0  0  0  0  0  0  0  0  0
   44.4810   48.2050   15.8590 O   0  0  0  0  0  0  0  0  0  0  0  0
   45.0970   47.1390   17.7100 O   0  0  0  0  0  0  0  0  0  0  0  0
   44.2340   46.8640   19.9510 C   0  0  0  0  0  0  0  0  0  0  0  0
   45.4020   47.3500   19.0900 C   0  0  0  0  0  0  0  0  0  0  0  0
  1  6  1  0  0  0  0
  2  1  2  0  0  0  0
  2  3  1  0  0  0  0
  3  4  2  0  0  0  0
  4  5  1  0  0  0  0
  4  7  1  0  0  0  0
  6  5  2  0  0  0  0
  7  9  1  0  0  0  0
  8  7  1  0  0  0  0
  9 10  1  0  0  0  0
  9 12  2  0  0  0  0
 11 10  1  0  0  0  0
 13 10  1  6  0  0  0
 13 15  1  0  0  0  0
 14 13  1  0  0  0  0
 15 17  1  0  0  0  0
 16 15  1  0  0  0  0
 19  1  1  0  0  0  0
 19 18  2  0  0  0  0
 20 18  1  0  0  0  0
 20 22  1  0  0  0  0
 21 20  2  0  0  0  0
 22 24  1  0  0  0  0
 24 23  1  0  0  0  0
M  END
>  <MODEL>
1

>  <REMARK>
  Name = ZINC48066364
                            x       y       z     vdW  Elec       q    Type
                         _______ _______ _______ _____ _____    ______ ____

>  <TORSDO>
F 7

>  <minimizedAffinity>
-7.6703138511064282

$$$$
ZINC48066364
 OpenBabel10211214363D

 24 24  0  0  1  0  0  0  0  0999 V2000
   51.0180   52.2940   20.8670 C   0  0  0  0  0  0  0  0  0  0  0  0
   51.1780   50.9340   21.1560 C   0  0  0  0  0  0  0  0  0  0  0  0
   50.8460   49.9880   20.2130 C   0  0  0  0  0  0  0  0  0  0  0  0
   50.3520   50.3830   18.9730 C   0  0  0  0  0  0  0  0  0  0  0  0
   50.1920   51.7330   18.6810 C   0  0  0  0  0  0  0  0  0  0  0  0
   50.5150   52.6860   19.6200 C   0  0  0  0  0  0  0  0  0  0  0  0
   50.0170   49.4210   18.0210 N   0  0  0  0  0  0  0  0  0  0  0  0
   50.6810   49.1180   17.3820 H   0  0  0  0  0  0  0  0  0  0  0  0
   48.7700   48.9110   17.9880 C   0  0  0  0  0  0  0  0  0  0  0  0
   48.4700   47.9160   17.1290 N   0  0  0  0  0  0  0  0  0  0  0  0
   49.1530   47.5660   16.5350 H   0  0  0  0  0  0  0  0  0  0  0  0
   47.9140   49.3490   18.7330 O   0  0  0  0  0  0  0  0  0  0  0  0
   47.1150   47.3610   17.0940 C   0  0  2  0  0  0  0  0  0  0  0  0
   47.1580   45.9450   16.5190 C   0  0  0  0  0  0  0  0  0  0  0  0
   46.2270   48.2430   16.2140 C   0  0  0  0  0  0  0  0  0  0  0  0
   44.9060   48.5160   16.9340 C   0  0  0  0  0  0  0  0  0  0  0  0
   45.9480   47.5260   14.8900 C   0  0  0  0  0  0  0  0  0  0  0  0
   51.2140   54.6200   21.5890 C   0  0  0  0  0  0  0  0  0  0  0  0
   51.3710   53.3080   21.8710 C   0  0  0  0  0  0  0  0  0  0  0  0
   51.5550   55.5970   22.5570 C   0  0  0  0  0  0  0  0  0  0  0  0
   51.7740   55.2660   23.7070 O   0  0  0  0  0  0  0  0  0  0  0  0
   51.6350   56.8970   22.2030 O   0  0  0  0  0  0  0  0  0  0  0  0
   49.4570   57.8930   21.8780 C   0  0  0  0  0  0  0  0  0  0  0  0
   50.7210   57.3540   21.2040 C   0  0  0  0  0  0  0  0  0  0  0  0
  1  2  1  0  0  0  0
  1 19  1  0  0  0  0
  3  2  2  0  0  0  0
  4  3  1  0  0  0  0
  5  4  2  0  0  0  0
  5  6  1  0  0  0  0
  6  1  2  0  0  0  0
  7  4  1  0  0  0  0
  8  7  1  0  0  0  0
  9  7  1  0  0  0  0
  9 12  2  0  0  0  0
 10  9  1  0  0  0  0
 11 10  1  0  0  0  0
 13 15  1  6  0  0  0
 13 10  1  0  0  0  0
 14 13  1  0  0  0  0
 15 16  1  0  0  0  0
 17 15  1  0  0  0  0
 18 19  2  0  0  0  0
 18 20  1  0  0  0  0
 20 21  2  0  0  0  0
 22 20  1  0  0  0  0
 24 23  1  0  0  0  0
 24 22  1  0  0  0  0
M  END
>  <MODEL>
2

>  <REMARK>
  Name = ZINC48066364
                            x       y       z     vdW  Elec       q    Type
                         _______ _______ _______ _____ _____    ______ ____

>  <TORSDO>
F 7

>  <minimizedAffinity>
-7.5147842282294404

$$$$
ZINC48066364
 OpenBabel10211214363D

 24 24  0  0  1  0  0  0  0  0999 V2000
   48.4160   50.7670   17.3360 C   0  0  0  0  0  0  0  0  0  0  0  0
   47.4990   51.8080   17.1520 C   0  0  0  0  0  0  0  0  0  0  0  0
   47.8500   53.0980   17.4770 C   0  0  0  0  0  0  0  0  0  0  0  0
   49.1170   53.3680   17.9870 C   0  0  0  0  0  0  0  0  0  0  0  0
   50.0330   52.3370   18.1700 C   0  0  0  0  0  0  0  0  0  0  0  0
   49.6880   51.0430   17.8550 C   0  0  0  0  0  0  0  0  0  0  0  0
   49.4690   54.6770   18.3150 N   0  0  0  0  0  0  0  0  0  0  0  0
   49.7940   55.2790   17.6270 H   0  0  0  0  0  0  0  0  0  0  0  0
   49.3580   55.1070   19.5870 C   0  0  0  0  0  0  0  0  0  0  0  0
   49.6100   56.3960   19.8890 N   0  0  0  0  0  0  0  0  0  0  0  0
   49.8710   57.0150   19.1890 H   0  0  0  0  0  0  0  0  0  0  0  0
   49.0310   54.3300   20.4650 O   0  0  0  0  0  0  0  0  0  0  0  0
   49.4880   56.8630   21.2720 C   0  0  2  0  0  0  0  0  0  0  0  0
   48.5700   58.0850   21.3200 C   0  0  0  0  0  0  0  0  0  0  0  0
   50.8710   57.2420   21.8050 C   0  0  0  0  0  0  0  0  0  0  0  0
   51.7580   57.6970   20.6450 C   0  0  0  0  0  0  0  0  0  0  0  0
   51.5060   56.0270   22.4860 C   0  0  0  0  0  0  0  0  0  0  0  0
   46.9430   48.8290   17.5360 C   0  0  0  0  0  0  0  0  0  0  0  0
   48.0450   49.3870   16.9900 C   0  0  0  0  0  0  0  0  0  0  0  0
   46.5850   47.4980   17.2030 C   0  0  0  0  0  0  0  0  0  0  0  0
   47.4350   46.7160   16.8190 O   0  0  0  0  0  0  0  0  0  0  0  0
   45.3010   47.0970   17.3130 O   0  0  0  0  0  0  0  0  0  0  0  0
   44.5860   46.9960   19.6190 C   0  0  0  0  0  0  0  0  0  0  0  0
   44.4990   47.7570   18.2950 C   0  0  0  0  0  0  0  0  0  0  0  0
  1  6  1  0  0  0  0
  2  1  2  0  0  0  0
  2  3  1  0  0  0  0
  3  4  2  0  0  0  0
  4  5  1  0  0  0  0
  4  7  1  0  0  0  0
  6  5  2  0  0  0  0
  7  9  1  0  0  0  0
  8  7  1  0  0  0  0
  9 10  1  0  0  0  0
  9 12  2  0  0  0  0
 11 10  1  0  0  0  0
 13 10  1  6  0  0  0
 13 14  1  0  0  0  0
 13 15  1  0  0  0  0
 15 17  1  0  0  0  0
 16 15  1  0  0  0  0
 19  1  1  0  0  0  0
 19 18  2  0  0  0  0
 20 22  1  0  0  0  0
 20 18  1  0  0  0  0
 21 20  2  0  0  0  0
 22 24  1  0  0  0  0
 24 23  1  0  0  0  0
M  END
>  <MODEL>
3

>  <REMARK>
  Name = ZINC48066364
                            x       y       z     vdW  Elec       q    Type
                         _______ _______ _______ _____ _____    ______ ____

>  <TORSDO>
F 7

>  <minimizedAffinity>
-7.3697642353894288

$$$$
ZINC48066364
 OpenBabel10211214363D

 24 24  0  0  1  0  0  0  0  0999 V2000
   47.4420   59.4560   18.9960 C   0  0  0  0  0  0  0  0  0  0  0  0
   47.5860   59.0320   20.3220 C   0  0  0  0  0  0  0  0  0  0  0  0
   47.9200   57.7240   20.5910 C   0  0  0  0  0  0  0  0  0  0  0  0
   48.1160   56.8250   19.5470 C   0  0  0  0  0  0  0  0  0  0  0  0
   47.9750   57.2430   18.2270 C   0  0  0  0  0  0  0  0  0  0  0  0
   47.6340   58.5470   17.9480 C   0  0  0  0  0  0  0  0  0  0  0  0
   48.4560   55.5010   19.8240 N   0  0  0  0  0  0  0  0  0  0  0  0
   47.7690   54.8700   20.0890 H   0  0  0  0  0  0  0  0  0  0  0  0
   49.7380   55.0990   19.7240 C   0  0  0  0  0  0  0  0  0  0  0  0
   50.0540   53.8010   19.9020 N   0  0  0  0  0  0  0  0  0  0  0  0
   49.3570   53.1550   20.1020 H   0  0  0  0  0  0  0  0  0  0  0  0
   50.6120   55.9080   19.4730 O   0  0  0  0  0  0  0  0  0  0  0  0
   51.4480   53.3630   19.7930 C   0  0  2  0  0  0  0  0  0  0  0  0
   51.5960   52.4270   18.5930 C   0  0  0  0  0  0  0  0  0  0  0  0
   51.8520   52.6250   21.0700 C   0  0  0  0  0  0  0  0  0  0  0  0
   51.0850   51.3050   21.1610 C   0  0  0  0  0  0  0  0  0  0  0  0
   51.5210   53.4930   22.2870 C   0  0  0  0  0  0  0  0  0  0  0  0
   46.2550   61.5240   19.5320 C   0  0  0  0  0  0  0  0  0  0  0  0
   47.0840   60.8520   18.7030 C   0  0  0  0  0  0  0  0  0  0  0  0
   45.9100   62.8690   19.2490 C   0  0  0  0  0  0  0  0  0  0  0  0
   45.0830   63.4430   19.9320 O   0  0  0  0  0  0  0  0  0  0  0  0
   46.4990   63.5140   18.2190 O   0  0  0  0  0  0  0  0  0  0  0  0
   46.7090   65.6210   17.0540 C   0  0  0  0  0  0  0  0  0  0  0  0
   45.7500   64.5590   17.5960 C   0  0  0  0  0  0  0  0  0  0  0  0
  1  2  2  0  0  0  0
  2  3  1  0  0  0  0
  4  7  1  0  0  0  0
  4  3  2  0  0  0  0
  5  4  1  0  0  0  0
  6  5  2  0  0  0  0
  6  1  1  0  0  0  0
  7  8  1  0  0  0  0
  9  7  1  0  0  0  0
  9 10  1  0  0  0  0
 10 11  1  0  0  0  0
 12  9  2  0  0  0  0
 13 14  1  1  0  0  0
 13 10  1  0  0  0  0
 13 15  1  0  0  0  0
 15 16  1  0  0  0  0
 15 17  1  0  0  0  0
 19  1  1  0  0  0  0
 19 18  2  0  0  0  0
 20 18  1  0  0  0  0
 20 21  2  0  0  0  0
 22 20  1  0  0  0  0
 23 24  1  0  0  0  0
 24 22  1  0  0  0  0
M  END
>  <MODEL>
4

>  <REMARK>
  Name = ZINC48066364
                            x       y       z     vdW  Elec       q    Type
                         _______ _______ _______ _____ _____    ______ ____

>  <TORSDO>
F 7

>  <minimizedAffinity>
-7.2605291201460087

$$$$
ZINC48066364
 OpenBabel10211214363D

 24 24  0  0  1  0  0  0  0  0999 V2000
   48.0290   49.9800   17.8870 C   0  0  0  0  0  0  0  0  0  0  0  0
   47.9250   51.1850   17.1820 C   0  0  0  0  0  0  0  0  0  0  0  0
   48.8940   52.1510   17.3270 C   0  0  0  0  0  0  0  0  0  0  0  0
   49.9780   51.9290   18.1730 C   0  0  0  0  0  0  0  0  0  0  0  0
   50.0850   50.7330   18.8750 C   0  0  0  0  0  0  0  0  0  0  0  0
   49.1170   49.7640   18.7410 C   0  0  0  0  0  0  0  0  0  0  0  0
   50.9580   52.9110   18.3170 N   0  0  0  0  0  0  0  0  0  0  0  0
   51.8350   52.7810   17.9250 H   0  0  0  0  0  0  0  0  0  0  0  0
   50.6860   54.0400   19.0020 C   0  0  0  0  0  0  0  0  0  0  0  0
   51.6010   55.0280   19.0630 N   0  0  0  0  0  0  0  0  0  0  0  0
   52.4550   54.9270   18.6140 H   0  0  0  0  0  0  0  0  0  0  0  0
   49.6150   54.1670   19.5640 O   0  0  0  0  0  0  0  0  0  0  0  0
   51.3050   56.2550   19.8060 C   0  0  2  0  0  0  0  0  0  0  0  0
   52.6060   57.0130   20.0780 C   0  0  0  0  0  0  0  0  0  0  0  0
   50.6360   55.8980   21.1340 C   0  0  0  0  0  0  0  0  0  0  0  0
   49.6710   57.0140   21.5370 C   0  0  0  0  0  0  0  0  0  0  0  0
   51.7060   55.7320   22.2170 C   0  0  0  0  0  0  0  0  0  0  0  0
   45.7230   49.3000   17.4510 C   0  0  0  0  0  0  0  0  0  0  0  0
   46.9950   48.9460   17.7350 C   0  0  0  0  0  0  0  0  0  0  0  0
   44.7260   48.3020   17.3060 C   0  0  0  0  0  0  0  0  0  0  0  0
   44.3150   47.7040   18.2820 O   0  0  0  0  0  0  0  0  0  0  0  0
   44.2340   48.0150   16.0820 O   0  0  0  0  0  0  0  0  0  0  0  0
   45.3350   45.9830   15.3760 C   0  0  0  0  0  0  0  0  0  0  0  0
   45.1500   47.4810   15.1240 C   0  0  0  0  0  0  0  0  0  0  0  0
  1  6  2  0  0  0  0
  2  3  2  0  0  0  0
  2  1  1  0  0  0  0
  3  4  1  0  0  0  0
  4  7  1  0  0  0  0
  4  5  2  0  0  0  0
  6  5  1  0  0  0  0
  7  9  1  0  0  0  0
  8  7  1  0  0  0  0
  9 10  1  0  0  0  0
  9 12  2  0  0  0  0
 11 10  1  0  0  0  0
 13 10  1  1  0  0  0
 13 14  1  0  0  0  0
 13 15  1  0  0  0  0
 15 16  1  0  0  0  0
 15 17  1  0  0  0  0
 18 19  2  0  0  0  0
 19  1  1  0  0  0  0
 20 18  1  0  0  0  0
 20 21  2  0  0  0  0
 22 20  1  0  0  0  0
 24 23  1  0  0  0  0
 24 22  1  0  0  0  0
M  END
>  <MODEL>
5

>  <REMARK>
  Name = ZINC48066364
                            x       y       z     vdW  Elec       q    Type
                         _______ _______ _______ _____ _____    ______ ____

>  <TORSDO>
F 7

>  <minimizedAffinity>
-6.9450663851526295

$$$$
ZINC48066364
 OpenBabel10211214363D

 24 24  0  0  1  0  0  0  0  0999 V2000
   49.4550   53.6320   18.4960 C   0  0  0  0  0  0  0  0  0  0  0  0
   48.5410   53.9150   17.4750 C   0  0  0  0  0  0  0  0  0  0  0  0
   48.1670   52.9260   16.5940 C   0  0  0  0  0  0  0  0  0  0  0  0
   48.6960   51.6450   16.7200 C   0  0  0  0  0  0  0  0  0  0  0  0
   49.6040   51.3580   17.7330 C   0  0  0  0  0  0  0  0  0  0  0  0
   49.9890   52.3430   18.6150 C   0  0  0  0  0  0  0  0  0  0  0  0
   48.3140   50.6450   15.8250 N   0  0  0  0  0  0  0  0  0  0  0  0
   48.7800   50.5460   14.9810 H   0  0  0  0  0  0  0  0  0  0  0  0
   47.2970   49.8170   16.1350 C   0  0  0  0  0  0  0  0  0  0  0  0
   46.9870   48.7930   15.3140 N   0  0  0  0  0  0  0  0  0  0  0  0
   47.4970   48.6530   14.5000 H   0  0  0  0  0  0  0  0  0  0  0  0
   46.6580   49.9930   17.1550 O   0  0  0  0  0  0  0  0  0  0  0  0
   45.8820   47.8930   15.6500 C   0  0  2  0  0  0  0  0  0  0  0  0
   46.4430   46.5680   16.1700 C   0  0  0  0  0  0  0  0  0  0  0  0
   45.0370   47.6340   14.4020 C   0  0  0  0  0  0  0  0  0  0  0  0
   44.8220   46.1290   14.2330 C   0  0  0  0  0  0  0  0  0  0  0  0
   45.7610   48.1880   13.1720 C   0  0  0  0  0  0  0  0  0  0  0  0
   51.0510   54.6090   20.0660 C   0  0  0  0  0  0  0  0  0  0  0  0
   49.8570   54.6860   19.4390 C   0  0  0  0  0  0  0  0  0  0  0  0
   51.4390   55.6250   20.9760 C   0  0  0  0  0  0  0  0  0  0  0  0
   52.1030   55.3450   21.9560 O   0  0  0  0  0  0  0  0  0  0  0  0
   51.0710   56.9050   20.7540 O   0  0  0  0  0  0  0  0  0  0  0  0
   48.8780   57.6640   21.4270 C   0  0  0  0  0  0  0  0  0  0  0  0
   50.3580   57.5640   21.8020 C   0  0  0  0  0  0  0  0  0  0  0  0
  1  6  1  0  0  0  0
  1 19  1  0  0  0  0
  2  1  2  0  0  0  0
  3  4  2  0  0  0  0
  3  2  1  0  0  0  0
  4  5  1  0  0  0  0
  5  6  2  0  0  0  0
  7  9  1  0  0  0  0
  7  4  1  0  0  0  0
  8  7  1  0  0  0  0
  9 12  2  0  0  0  0
 10 13  1  0  0  0  0
 10  9  1  0  0  0  0
 11 10  1  0  0  0  0
 13 15  1  6  0  0  0
 13 14  1  0  0  0  0
 16 15  1  0  0  0  0
 17 15  1  0  0  0  0
 18 20  1  0  0  0  0
 19 18  2  0  0  0  0
 20 21  2  0  0  0  0
 22 20  1  0  0  0  0
 22 24  1  0  0  0  0
 23 24  1  0  0  0  0
M  END
>  <MODEL>
6

>  <REMARK>
  Name = ZINC48066364
                            x       y       z     vdW  Elec       q    Type
                         _______ _______ _______ _____ _____    ______ ____

>  <TORSDO>
F 7

>  <minimizedAffinity>
-6.9350784811936981

$$$$
ZINC48066364
 OpenBabel10211214363D

 24 24  0  0  1  0  0  0  0  0999 V2000
   47.5450   59.3440   19.0120 C   0  0  0  0  0  0  0  0  0  0  0  0
   47.7010   58.8950   20.3280 C   0  0  0  0  0  0  0  0  0  0  0  0
   48.0010   57.5750   20.5720 C   0  0  0  0  0  0  0  0  0  0  0  0
   48.1510   56.6860   19.5110 C   0  0  0  0  0  0  0  0  0  0  0  0
   47.9980   57.1280   18.2010 C   0  0  0  0  0  0  0  0  0  0  0  0
   47.6910   58.4450   17.9470 C   0  0  0  0  0  0  0  0  0  0  0  0
   48.4560   55.3490   19.7630 N   0  0  0  0  0  0  0  0  0  0  0  0
   47.7510   54.7270   20.0020 H   0  0  0  0  0  0  0  0  0  0  0  0
   49.7300   54.9190   19.6730 C   0  0  0  0  0  0  0  0  0  0  0  0
   50.0130   53.6100   19.8250 N   0  0  0  0  0  0  0  0  0  0  0  0
   49.2990   52.9770   20.0000 H   0  0  0  0  0  0  0  0  0  0  0  0
   50.6250   55.7140   19.4550 O   0  0  0  0  0  0  0  0  0  0  0  0
   51.3980   53.1440   19.7270 C   0  0  2  0  0  0  0  0  0  0  0  0
   51.6040   52.4330   18.3890 C   0  0  0  0  0  0  0  0  0  0  0  0
   51.6910   52.1720   20.8720 C   0  0  0  0  0  0  0  0  0  0  0  0
   51.3480   50.7480   20.4320 C   0  0  0  0  0  0  0  0  0  0  0  0
   50.8430   52.5480   22.0890 C   0  0  0  0  0  0  0  0  0  0  0  0
   46.2920   61.3860   19.4930 C   0  0  0  0  0  0  0  0  0  0  0  0
   47.2240   60.7540   18.7460 C   0  0  0  0  0  0  0  0  0  0  0  0
   45.9820   62.7450   19.2370 C   0  0  0  0  0  0  0  0  0  0  0  0
   46.6500   63.3840   18.4460 O   0  0  0  0  0  0  0  0  0  0  0  0
   44.9450   63.3310   19.8710 O   0  0  0  0  0  0  0  0  0  0  0  0
   42.5510   63.0120   19.7810 C   0  0  0  0  0  0  0  0  0  0  0  0
   43.7800   63.6060   19.0900 C   0  0  0  0  0  0  0  0  0  0  0  0
  1  2  2  0  0  0  0
  2  3  1  0  0  0  0
  4  7  1  0  0  0  0
  4  3  2  0  0  0  0
  5  4  1  0  0  0  0
  6  5  2  0  0  0  0
  6  1  1  0  0  0  0
  7  8  1  0  0  0  0
  9  7  1  0  0  0  0
  9 10  1  0  0  0  0
 10 11  1  0  0  0  0
 12  9  2  0  0  0  0
 13 14  1  6  0  0  0
 13 10  1  0  0  0  0
 13 15  1  0  0  0  0
 15 17  1  0  0  0  0
 16 15  1  0  0  0  0
 19  1  1  0  0  0  0
 19 18  2  0  0  0  0
 20 18  1  0  0  0  0
 20 22  1  0  0  0  0
 21 20  2  0  0  0  0
 24 23  1  0  0  0  0
 24 22  1  0  0  0  0
M  END
>  <MODEL>
7

>  <REMARK>
  Name = ZINC48066364
                            x       y       z     vdW  Elec       q    Type
                         _______ _______ _______ _____ _____    ______ ____

>  <TORSDO>
F 7

>  <minimizedAffinity>
-6.8406252149681075

$$$$
ZINC48066364
 OpenBabel10211214363D

 24 24  0  0  1  0  0  0  0  0999 V2000
   49.9060   55.0600   20.6020 C   0  0  0  0  0  0  0  0  0  0  0  0
   48.7100   55.0160   19.8770 C   0  0  0  0  0  0  0  0  0  0  0  0
   47.8600   56.0980   19.8870 C   0  0  0  0  0  0  0  0  0  0  0  0
   48.1900   57.2370   20.6170 C   0  0  0  0  0  0  0  0  0  0  0  0
   49.3780   57.2860   21.3390 C   0  0  0  0  0  0  0  0  0  0  0  0
   50.2310   56.2050   21.3400 C   0  0  0  0  0  0  0  0  0  0  0  0
   47.3260   58.3320   20.6240 N   0  0  0  0  0  0  0  0  0  0  0  0
   46.7200   58.4660   21.3690 H   0  0  0  0  0  0  0  0  0  0  0  0
   47.3350   59.2030   19.5970 C   0  0  0  0  0  0  0  0  0  0  0  0
   46.5670   60.3110   19.6450 N   0  0  0  0  0  0  0  0  0  0  0  0
   46.0090   60.4800   20.4200 H   0  0  0  0  0  0  0  0  0  0  0  0
   48.0340   58.9910   18.6240 O   0  0  0  0  0  0  0  0  0  0  0  0
   46.5770   61.2590   18.5280 C   0  0  2  0  0  0  0  0  0  0  0  0
   46.6660   62.6860   19.0700 C   0  0  0  0  0  0  0  0  0  0  0  0
   45.2910   61.1010   17.7150 C   0  0  0  0  0  0  0  0  0  0  0  0
   45.2170   62.2030   16.6580 C   0  0  0  0  0  0  0  0  0  0  0  0
   44.0820   61.2070   18.6490 C   0  0  0  0  0  0  0  0  0  0  0  0
   50.5350   52.8300   19.8280 C   0  0  0  0  0  0  0  0  0  0  0  0
   50.8160   53.9060   20.5950 C   0  0  0  0  0  0  0  0  0  0  0  0
   51.4130   51.7170   19.8220 C   0  0  0  0  0  0  0  0  0  0  0  0
   52.4400   51.7470   20.4730 O   0  0  0  0  0  0  0  0  0  0  0  0
   51.1080   50.6220   19.0920 O   0  0  0  0  0  0  0  0  0  0  0  0
   49.2730   49.0500   19.0730 C   0  0  0  0  0  0  0  0  0  0  0  0
   50.5410   49.5140   19.7930 C   0  0  0  0  0  0  0  0  0  0  0  0
  1  6  2  0  0  0  0
  2  3  2  0  0  0  0
  2  1  1  0  0  0  0
  3  4  1  0  0  0  0
  4  7  1  0  0  0  0
  4  5  2  0  0  0  0
  5  6  1  0  0  0  0
  7  8  1  0  0  0  0
  9 10  1  0  0  0  0
  9  7  1  0  0  0  0
 10 11  1  0  0  0  0
 12  9  2  0  0  0  0
 13 15  1  1  0  0  0
 13 14  1  0  0  0  0
 13 10  1  0  0  0  0
 15 17  1  0  0  0  0
 16 15  1  0  0  0  0
 18 19  2  0  0  0  0
 19  1  1  0  0  0  0
 20 18  1  0  0  0  0
 20 21  2  0  0  0  0
 22 24  1  0  0  0  0
 22 20  1  0  0  0  0
 23 24  1  0  0  0  0
M  END
>  <MODEL>
8

>  <REMARK>
  Name = ZINC48066364
                            x       y       z     vdW  Elec       q    Type
                         _______ _______ _______ _____ _____    ______ ____

>  <TORSDO>
F 7

>  <minimizedAffinity>
-6.7369992512487862

$$$$
ZINC48066364
 OpenBabel10211214363D

 24 24  0  0  1  0  0  0  0  0999 V2000
   49.0750   49.2070   17.8930 C   0  0  0  0  0  0  0  0  0  0  0  0
   49.4980   49.1140   19.2240 C   0  0  0  0  0  0  0  0  0  0  0  0
   50.3490   50.0640   19.7410 C   0  0  0  0  0  0  0  0  0  0  0  0
   50.7860   51.1170   18.9430 C   0  0  0  0  0  0  0  0  0  0  0  0
   50.3680   51.2140   17.6200 C   0  0  0  0  0  0  0  0  0  0  0  0
   49.5230   50.2650   17.0910 C   0  0  0  0  0  0  0  0  0  0  0  0
   51.6480   52.0780   19.4720 N   0  0  0  0  0  0  0  0  0  0  0  0
   52.5550   51.8360   19.7120 H   0  0  0  0  0  0  0  0  0  0  0  0
   51.2180   53.3430   19.6490 C   0  0  0  0  0  0  0  0  0  0  0  0
   52.0760   54.2930   20.0730 N   0  0  0  0  0  0  0  0  0  0  0  0
   53.0020   54.0660   20.2500 H   0  0  0  0  0  0  0  0  0  0  0  0
   50.0570   53.6280   19.4270 O   0  0  0  0  0  0  0  0  0  0  0  0
   51.6090   55.6690   20.2650 C   0  0  2  0  0  0  0  0  0  0  0  0
   52.8120   56.6090   20.3460 C   0  0  0  0  0  0  0  0  0  0  0  0
   50.8040   55.7570   21.5620 C   0  0  0  0  0  0  0  0  0  0  0  0
   50.2160   57.1620   21.7040 C   0  0  0  0  0  0  0  0  0  0  0  0
   51.7210   55.4650   22.7530 C   0  0  0  0  0  0  0  0  0  0  0  0
   47.0340   48.5760   16.7070 C   0  0  0  0  0  0  0  0  0  0  0  0
   48.1680   48.1940   17.3350 C   0  0  0  0  0  0  0  0  0  0  0  0
   46.1590   47.5980   16.1700 C   0  0  0  0  0  0  0  0  0  0  0  0
   46.2280   47.3000   14.9920 O   0  0  0  0  0  0  0  0  0  0  0  0
   45.2480   46.9990   16.9650 O   0  0  0  0  0  0  0  0  0  0  0  0
   44.7920   47.1790   19.3320 C   0  0  0  0  0  0  0  0  0  0  0  0
   44.6130   47.8150   17.9520 C   0  0  0  0  0  0  0  0  0  0  0  0
  1  2  2  0  0  0  0
  2  3  1  0  0  0  0
  4  7  1  0  0  0  0
  4  3  2  0  0  0  0
  5  4  1  0  0  0  0
  6  5  2  0  0  0  0
  6  1  1  0  0  0  0
  7  9  1  0  0  0  0
  7  8  1  0  0  0  0
  9 10  1  0  0  0  0
 10 11  1  0  0  0  0
 12  9  2  0  0  0  0
 13 10  1  1  0  0  0
 13 14  1  0  0  0  0
 13 15  1  0  0  0  0
 15 16  1  0  0  0  0
 15 17  1  0  0  0  0
 18 19  2  0  0  0  0
 19  1  1  0  0  0  0
 20 18  1  0  0  0  0
 20 22  1  0  0  0  0
 21 20  2  0  0  0  0
 22 24  1  0  0  0  0
 24 23  1  0  0  0  0
M  END
>  <MODEL>
9

>  <REMARK>
  Name = ZINC48066364
                            x       y       z     vdW  Elec       q    Type
                         _______ _______ _______ _____ _____    ______ ____

>  <TORSDO>
F 7

>  <minimizedAffinity>
-6.6813836376949087

$$$$
ZINC35062176
 OpenBabel10211214373D

 20 20  0  0  1  0  0  0  0  0999 V2000
   48.2170   57.8290   20.6230 C   0  0  0  0  0  0  0  0  0  0  0  0
   48.9170   58.3920   21.6820 C   0  0  0  0  0  0  0  0  0  0  0  0
   50.0220   57.7450   22.1990 C   0  0  0  0  0  0  0  0  0  0  0  0
   50.4320   56.5370   21.6640 C   0  0  0  0  0  0  0  0  0  0  0  0
   49.7370   55.9740   20.6090 C   0  0  0  0  0  0  0  0  0  0  0  0
   48.6280   56.6130   20.0900 C   0  0  0  0  0  0  0  0  0  0  0  0
   51.8420   55.7160   22.3270 S   0  0  0  0  0  0  0  0  0  0  0  0
   52.2050   54.7110   21.3900 O   0  0  0  0  0  0  0  0  0  0  0  0
   51.5390   55.4190   23.6830 O   0  0  0  0  0  0  0  0  0  0  0  0
   53.0830   56.8120   22.3490 N   0  0  0  0  0  0  0  0  0  0  0  0
   53.5130   57.0410   23.1880 H   0  0  0  0  0  0  0  0  0  0  0  0
   53.5320   57.4350   21.1000 C   0  0  0  0  0  0  0  0  0  0  0  0
   47.0990   58.4810   20.0960 N   0  0  0  0  0  0  0  0  0  0  0  0
   46.2120   58.2590   20.4190 H   0  0  0  0  0  0  0  0  0  0  0  0
   47.2250   58.8380   17.6800 C   0  0  0  0  0  0  0  0  0  0  0  0
   47.2680   59.5010   19.0580 C   0  0  1  0  0  0  0  0  0  0  0  0
   46.1400   60.5290   19.1650 C   0  0  0  0  0  0  0  0  0  0  0  0
   46.7390   61.9320   19.2810 C   0  0  0  0  0  0  0  0  0  0  0  0
   45.6870   62.8910   19.8440 C   0  0  0  0  0  0  0  0  0  0  0  0
   47.1800   62.4150   17.8980 C   0  0  0  0  0  0  0  0  0  0  0  0
  1  2  2  0  0  0  0
  2  3  1  0  0  0  0
  4  3  2  0  0  0  0
  4  7  1  0  0  0  0
  5  4  1  0  0  0  0
  6  5  2  0  0  0  0
  6  1  1  0  0  0  0
  7 10  1  0  0  0  0
  7  9  2  0  0  0  0
  8  7  2  0  0  0  0
 10 11  1  0  0  0  0
 12 10  1  0  0  0  0
 13 14  1  0  0  0  0
 13  1  1  0  0  0  0
 16 15  1  6  0  0  0
 16 17  1  0  0  0  0
 16 13  1  0  0  0  0
 17 18  1  0  0  0  0
 18 19  1  0  0  0  0
 20 18  1  0  0  0  0
M  END
>  <MODEL>
1

>  <REMARK>
  Name = ZINC35062176
                            x       y       z     vdW  Elec       q    Type
                         _______ _______ _______ _____ _____    ______ ____

>  <TORSDO>
F 6

>  <minimizedAffinity>
-7.1993168817919395

$$$$
ZINC35062176
 OpenBabel10211214373D

 20 20  0  0  1  0  0  0  0  0999 V2000
   52.1950   54.8640   20.2440 C   0  0  0  0  0  0  0  0  0  0  0  0
   52.5220   54.1550   19.0950 C   0  0  0  0  0  0  0  0  0  0  0  0
   52.4160   52.7780   19.0830 C   0  0  0  0  0  0  0  0  0  0  0  0
   51.9850   52.1050   20.2110 C   0  0  0  0  0  0  0  0  0  0  0  0
   51.6570   52.8090   21.3560 C   0  0  0  0  0  0  0  0  0  0  0  0
   51.7660   54.1850   21.3780 C   0  0  0  0  0  0  0  0  0  0  0  0
   51.8500   50.3490   20.1890 S   0  0  0  0  0  0  0  0  0  0  0  0
   50.9260   50.0000   21.2100 O   0  0  0  0  0  0  0  0  0  0  0  0
   53.1770   49.8410   20.1570 O   0  0  0  0  0  0  0  0  0  0  0  0
   51.1470   49.9290   18.7500 N   0  0  0  0  0  0  0  0  0  0  0  0
   51.6820   49.5220   18.0500 H   0  0  0  0  0  0  0  0  0  0  0  0
   49.7180   50.1690   18.5350 C   0  0  0  0  0  0  0  0  0  0  0  0
   52.3000   56.2570   20.2610 N   0  0  0  0  0  0  0  0  0  0  0  0
   52.9430   56.7020   19.6880 H   0  0  0  0  0  0  0  0  0  0  0  0
   52.2200   58.2430   21.6870 C   0  0  0  0  0  0  0  0  0  0  0  0
   51.4360   57.0460   21.1440 C   0  0  1  0  0  0  0  0  0  0  0  0
   50.2230   57.5460   20.3570 C   0  0  0  0  0  0  0  0  0  0  0  0
   48.9580   56.8640   20.8820 C   0  0  0  0  0  0  0  0  0  0  0  0
   48.6090   55.6750   19.9840 C   0  0  0  0  0  0  0  0  0  0  0  0
   47.8000   57.8640   20.8780 C   0  0  0  0  0  0  0  0  0  0  0  0
  1 13  1  0  0  0  0
  1  6  2  0  0  0  0
  2  1  1  0  0  0  0
  3  2  2  0  0  0  0
  3  4  1  0  0  0  0
  4  5  2  0  0  0  0
  5  6  1  0  0  0  0
  7  4  1  0  0  0  0
  7  8  2  0  0  0  0
  9  7  2  0  0  0  0
 10  7  1  0  0  0  0
 11 10  1  0  0  0  0
 12 10  1  0  0  0  0
 14 13  1  0  0  0  0
 16 13  1  6  0  0  0
 16 15  1  0  0  0  0
 17 18  1  0  0  0  0
 17 16  1  0  0  0  0
 19 18  1  0  0  0  0
 20 18  1  0  0  0  0
M  END
>  <MODEL>
2

>  <REMARK>
  Name = ZINC35062176
                            x       y       z     vdW  Elec       q    Type
                         _______ _______ _______ _____ _____    ______ ____

>  <TORSDO>
F 6

>  <minimizedAffinity>
-7.0684865371905063

$$$$
ZINC35062176
 OpenBabel10211214373D

 20 20  0  0  1  0  0  0  0  0999 V2000
   50.9890   52.4550   21.2940 C   0  0  0  0  0  0  0  0  0  0  0  0
   51.6390   53.1550   22.3020 C   0  0  0  0  0  0  0  0  0  0  0  0
   51.6010   54.5360   22.3160 C   0  0  0  0  0  0  0  0  0  0  0  0
   50.9170   55.2210   21.3280 C   0  0  0  0  0  0  0  0  0  0  0  0
   50.2690   54.5250   20.3230 C   0  0  0  0  0  0  0  0  0  0  0  0
   50.3080   53.1450   20.3000 C   0  0  0  0  0  0  0  0  0  0  0  0
   50.8710   56.9820   21.3500 S   0  0  0  0  0  0  0  0  0  0  0  0
   49.6600   57.3480   21.9950 O   0  0  0  0  0  0  0  0  0  0  0  0
   51.1940   57.4130   20.0350 O   0  0  0  0  0  0  0  0  0  0  0  0
   52.1030   57.4920   22.3310 N   0  0  0  0  0  0  0  0  0  0  0  0
   52.0500   57.3500   23.2900 H   0  0  0  0  0  0  0  0  0  0  0  0
   53.2750   58.1550   21.7530 C   0  0  0  0  0  0  0  0  0  0  0  0
   51.0250   51.0580   21.2770 N   0  0  0  0  0  0  0  0  0  0  0  0
   51.0010   50.5620   22.1090 H   0  0  0  0  0  0  0  0  0  0  0  0
   52.4990   49.7570   19.8210 C   0  0  0  0  0  0  0  0  0  0  0  0
   51.0970   50.3430   20.0000 C   0  0  1  0  0  0  0  0  0  0  0  0
   50.0670   49.2120   19.9900 C   0  0  0  0  0  0  0  0  0  0  0  0
   49.3480   49.1890   18.6400 C   0  0  0  0  0  0  0  0  0  0  0  0
   49.3960   50.5830   18.0120 C   0  0  0  0  0  0  0  0  0  0  0  0
   47.8900   48.7720   18.8450 C   0  0  0  0  0  0  0  0  0  0  0  0
  1  2  2  0  0  0  0
  2  3  1  0  0  0  0
  4  7  1  0  0  0  0
  4  3  2  0  0  0  0
  5  4  1  0  0  0  0
  6  5  2  0  0  0  0
  6  1  1  0  0  0  0
  7  8  2  0  0  0  0
  7 10  1  0  0  0  0
  9  7  2  0  0  0  0
 10 11  1  0  0  0  0
 12 10  1  0  0  0  0
 13  1  1  0  0  0  0
 13 14  1  0  0  0  0
 16 15  1  1  0  0  0
 16 13  1  0  0  0  0
 17 16  1  0  0  0  0
 18 20  1  0  0  0  0
 18 17  1  0  0  0  0
 19 18  1  0  0  0  0
M  END
>  <MODEL>
3

>  <REMARK>
  Name = ZINC35062176
                            x       y       z     vdW  Elec       q    Type
                         _______ _______ _______ _____ _____    ______ ____

>  <TORSDO>
F 6

>  <minimizedAffinity>
-7.0486099829903548

$$$$
ZINC35062176
 OpenBabel10211214373D

 20 20  0  0  1  0  0  0  0  0999 V2000
   48.1830   57.6450   20.5730 C   0  0  0  0  0  0  0  0  0  0  0  0
   48.2270   56.3840   19.9920 C   0  0  0  0  0  0  0  0  0  0  0  0
   49.2460   55.5110   20.3180 C   0  0  0  0  0  0  0  0  0  0  0  0
   50.2220   55.8910   21.2210 C   0  0  0  0  0  0  0  0  0  0  0  0
   50.1810   57.1460   21.8010 C   0  0  0  0  0  0  0  0  0  0  0  0
   49.1680   58.0260   21.4760 C   0  0  0  0  0  0  0  0  0  0  0  0
   51.5210   54.7740   21.6340 S   0  0  0  0  0  0  0  0  0  0  0  0
   51.8120   54.9800   23.0090 O   0  0  0  0  0  0  0  0  0  0  0  0
   52.5060   54.9030   20.6180 O   0  0  0  0  0  0  0  0  0  0  0  0
   50.9080   53.2410   21.5050 N   0  0  0  0  0  0  0  0  0  0  0  0
   49.9710   53.1100   21.2870 H   0  0  0  0  0  0  0  0  0  0  0  0
   51.7790   52.0820   21.7190 C   0  0  0  0  0  0  0  0  0  0  0  0
   47.1530   58.5310   20.2470 N   0  0  0  0  0  0  0  0  0  0  0  0
   46.3070   58.4860   20.7180 H   0  0  0  0  0  0  0  0  0  0  0  0
   47.3940   58.8330   17.8310 C   0  0  0  0  0  0  0  0  0  0  0  0
   47.3520   59.5290   19.1930 C   0  0  1  0  0  0  0  0  0  0  0  0
   46.1980   60.5330   19.2160 C   0  0  0  0  0  0  0  0  0  0  0  0
   46.7600   61.9550   19.2830 C   0  0  0  0  0  0  0  0  0  0  0  0
   45.6900   62.9020   19.8300 C   0  0  0  0  0  0  0  0  0  0  0  0
   47.1730   62.4070   17.8800 C   0  0  0  0  0  0  0  0  0  0  0  0
  1  6  2  0  0  0  0
  2  3  2  0  0  0  0
  2  1  1  0  0  0  0
  3  4  1  0  0  0  0
  4  7  1  0  0  0  0
  4  5  2  0  0  0  0
  6  5  1  0  0  0  0
  7  8  2  0  0  0  0
  9  7  2  0  0  0  0
 10  7  1  0  0  0  0
 10 12  1  0  0  0  0
 11 10  1  0  0  0  0
 13  1  1  0  0  0  0
 13 14  1  0  0  0  0
 16 15  1  6  0  0  0
 16 17  1  0  0  0  0
 16 13  1  0  0  0  0
 17 18  1  0  0  0  0
 18 19  1  0  0  0  0
 20 18  1  0  0  0  0
M  END
>  <MODEL>
4

>  <REMARK>
  Name = ZINC35062176
                            x       y       z     vdW  Elec       q    Type
                         _______ _______ _______ _____ _____    ______ ____

>  <TORSDO>
F 6

>  <minimizedAffinity>
-7.0241179685334432

$$$$
ZINC35062176
 OpenBabel10211214373D

 20 20  0  0  1  0  0  0  0  0999 V2000
   48.5200   49.7840   18.3170 C   0  0  0  0  0  0  0  0  0  0  0  0
   49.1940   48.9380   19.1880 C   0  0  0  0  0  0  0  0  0  0  0  0
   50.4040   49.3270   19.7270 C   0  0  0  0  0  0  0  0  0  0  0  0
   50.9460   50.5570   19.4010 C   0  0  0  0  0  0  0  0  0  0  0  0
   50.2760   51.4020   18.5340 C   0  0  0  0  0  0  0  0  0  0  0  0
   49.0680   51.0170   17.9870 C   0  0  0  0  0  0  0  0  0  0  0  0
   52.4900   51.0490   20.0920 S   0  0  0  0  0  0  0  0  0  0  0  0
   52.8650   52.2500   19.4320 O   0  0  0  0  0  0  0  0  0  0  0  0
   53.3170   49.8940   20.0990 O   0  0  0  0  0  0  0  0  0  0  0  0
   52.2140   51.4440   21.6760 N   0  0  0  0  0  0  0  0  0  0  0  0
   52.5080   50.8480   22.3820 H   0  0  0  0  0  0  0  0  0  0  0  0
   51.5280   52.6960   22.0100 C   0  0  0  0  0  0  0  0  0  0  0  0
   47.2950   49.3950   17.7700 N   0  0  0  0  0  0  0  0  0  0  0  0
   46.6370   50.0640   17.5260 H   0  0  0  0  0  0  0  0  0  0  0  0
   45.5210   47.7110   17.8310 C   0  0  0  0  0  0  0  0  0  0  0  0
   47.0040   47.9730   17.5620 C   0  0  1  0  0  0  0  0  0  0  0  0
   47.3360   47.5900   16.1180 C   0  0  0  0  0  0  0  0  0  0  0  0
   46.8270   48.6800   15.1720 C   0  0  0  0  0  0  0  0  0  0  0  0
   45.9360   48.0500   14.1000 C   0  0  0  0  0  0  0  0  0  0  0  0
   48.0170   49.3730   14.5050 C   0  0  0  0  0  0  0  0  0  0  0  0
  1  2  1  0  0  0  0
  2  3  2  0  0  0  0
  4  3  1  0  0  0  0
  4  7  1  0  0  0  0
  5  4  2  0  0  0  0
  6  1  2  0  0  0  0
  6  5  1  0  0  0  0
  7  9  2  0  0  0  0
  7 10  1  0  0  0  0
  8  7  2  0  0  0  0
 10 12  1  0  0  0  0
 10 11  1  0  0  0  0
 13  1  1  0  0  0  0
 14 13  1  0  0  0  0
 16 17  1  6  0  0  0
 16 13  1  0  0  0  0
 16 15  1  0  0  0  0
 18 17  1  0  0  0  0
 19 18  1  0  0  0  0
 20 18  1  0  0  0  0
M  END
>  <MODEL>
5

>  <REMARK>
  Name = ZINC35062176
                            x       y       z     vdW  Elec       q    Type
                         _______ _______ _______ _____ _____    ______ ____

>  <TORSDO>
F 6

>  <minimizedAffinity>
-7.0076968981569339

$$$$
ZINC35062176
 OpenBabel10211214373D

 20 20  0  0  1  0  0  0  0  0999 V2000
   49.3150   53.9640   19.3910 C   0  0  0  0  0  0  0  0  0  0  0  0
   49.4550   53.1570   18.2690 C   0  0  0  0  0  0  0  0  0  0  0  0
   50.3680   52.1210   18.2760 C   0  0  0  0  0  0  0  0  0  0  0  0
   51.1440   51.8870   19.3960 C   0  0  0  0  0  0  0  0  0  0  0  0
   51.0070   52.6890   20.5150 C   0  0  0  0  0  0  0  0  0  0  0  0
   50.0990   53.7300   20.5140 C   0  0  0  0  0  0  0  0  0  0  0  0
   52.3070   50.5640   19.3990 S   0  0  0  0  0  0  0  0  0  0  0  0
   53.0580   50.6870   20.6000 O   0  0  0  0  0  0  0  0  0  0  0  0
   52.9180   50.5580   18.1170 O   0  0  0  0  0  0  0  0  0  0  0  0
   51.4470   49.1550   19.5210 N   0  0  0  0  0  0  0  0  0  0  0  0
   51.5840   48.4460   18.8730 H   0  0  0  0  0  0  0  0  0  0  0  0
   50.4790   48.9780   20.6080 C   0  0  0  0  0  0  0  0  0  0  0  0
   48.3920   55.0120   19.3890 N   0  0  0  0  0  0  0  0  0  0  0  0
   47.4580   54.8360   19.5790 H   0  0  0  0  0  0  0  0  0  0  0  0
   48.3050   56.8120   17.7350 C   0  0  0  0  0  0  0  0  0  0  0  0
   48.8360   56.3790   19.1030 C   0  0  1  0  0  0  0  0  0  0  0  0
   48.3010   57.3250   20.1790 C   0  0  0  0  0  0  0  0  0  0  0  0
   49.2490   57.3180   21.3810 C   0  0  0  0  0  0  0  0  0  0  0  0
   48.9540   58.5280   22.2700 C   0  0  0  0  0  0  0  0  0  0  0  0
   50.6960   57.3870   20.8890 C   0  0  0  0  0  0  0  0  0  0  0  0
  1  6  2  0  0  0  0
  2  3  2  0  0  0  0
  2  1  1  0  0  0  0
  3  4  1  0  0  0  0
  4  7  1  0  0  0  0
  4  5  2  0  0  0  0
  6  5  1  0  0  0  0
  7 10  1  0  0  0  0
  7  8  2  0  0  0  0
  9  7  2  0  0  0  0
 10 12  1  0  0  0  0
 11 10  1  0  0  0  0
 13  1  1  0  0  0  0
 13 14  1  0  0  0  0
 16 15  1  1  0  0  0
 16 13  1  0  0  0  0
 16 17  1  0  0  0  0
 17 18  1  0  0  0  0
 18 19  1  0  0  0  0
 20 18  1  0  0  0  0
M  END
>  <MODEL>
6

>  <REMARK>
  Name = ZINC35062176
                            x       y       z     vdW  Elec       q    Type
                         _______ _______ _______ _____ _____    ______ ____

>  <TORSDO>
F 6

>  <minimizedAffinity>
-6.9472188494867302

$$$$
ZINC35062176
 OpenBabel10211214373D

 20 20  0  0  1  0  0  0  0  0999 V2000
   49.2270   50.8570   17.8360 C   0  0  0  0  0  0  0  0  0  0  0  0
   49.3630   49.6890   18.5760 C   0  0  0  0  0  0  0  0  0  0  0  0
   48.3000   48.8140   18.6810 C   0  0  0  0  0  0  0  0  0  0  0  0
   47.1020   49.0980   18.0520 C   0  0  0  0  0  0  0  0  0  0  0  0
   46.9640   50.2600   17.3150 C   0  0  0  0  0  0  0  0  0  0  0  0
   48.0210   51.1430   17.2090 C   0  0  0  0  0  0  0  0  0  0  0  0
   45.7490   47.9780   18.1900 S   0  0  0  0  0  0  0  0  0  0  0  0
   44.6260   48.6240   17.6060 O   0  0  0  0  0  0  0  0  0  0  0  0
   45.7460   47.5080   19.5300 O   0  0  0  0  0  0  0  0  0  0  0  0
   46.0950   46.6730   17.2320 N   0  0  0  0  0  0  0  0  0  0  0  0
   46.4520   45.8620   17.6270 H   0  0  0  0  0  0  0  0  0  0  0  0
   45.8600   46.7420   15.7860 C   0  0  0  0  0  0  0  0  0  0  0  0
   50.3000   51.7450   17.7260 N   0  0  0  0  0  0  0  0  0  0  0  0
   50.4860   52.1790   16.8790 H   0  0  0  0  0  0  0  0  0  0  0  0
   52.4860   52.5910   18.4260 C   0  0  0  0  0  0  0  0  0  0  0  0
   51.1440   52.0210   18.8910 C   0  0  1  0  0  0  0  0  0  0  0  0
   50.4460   53.0380   19.7970 C   0  0  0  0  0  0  0  0  0  0  0  0
   50.6250   52.6250   21.2600 C   0  0  0  0  0  0  0  0  0  0  0  0
   51.6060   53.5790   21.9430 C   0  0  0  0  0  0  0  0  0  0  0  0
   51.1740   51.1980   21.3230 C   0  0  0  0  0  0  0  0  0  0  0  0
  1  2  2  0  0  0  0
  2  3  1  0  0  0  0
  4  7  1  0  0  0  0
  4  3  2  0  0  0  0
  5  4  1  0  0  0  0
  6  5  2  0  0  0  0
  6  1  1  0  0  0  0
  7  9  2  0  0  0  0
  8  7  2  0  0  0  0
 10 11  1  0  0  0  0
 10  7  1  0  0  0  0
 12 10  1  0  0  0  0
 13  1  1  0  0  0  0
 14 13  1  0  0  0  0
 15 16  1  0  0  0  0
 16 13  1  6  0  0  0
 16 17  1  0  0  0  0
 17 18  1  0  0  0  0
 18 20  1  0  0  0  0
 18 19  1  0  0  0  0
M  END
>  <MODEL>
7

>  <REMARK>
  Name = ZINC35062176
                            x       y       z     vdW  Elec       q    Type
                         _______ _______ _______ _____ _____    ______ ____

>  <TORSDO>
F 6

>  <minimizedAffinity>
-6.8737823794396844

$$$$
ZINC35062176
 OpenBabel10211214373D

 20 20  0  0  1  0  0  0  0  0999 V2000
   50.3230   53.1900   18.5530 C   0  0  0  0  0  0  0  0  0  0  0  0
   51.6670   53.3270   18.8750 C   0  0  0  0  0  0  0  0  0  0  0  0
   52.0450   54.1520   19.9160 C   0  0  0  0  0  0  0  0  0  0  0  0
   51.0880   54.8410   20.6380 C   0  0  0  0  0  0  0  0  0  0  0  0
   49.7490   54.7060   20.3200 C   0  0  0  0  0  0  0  0  0  0  0  0
   49.3630   53.8870   19.2770 C   0  0  0  0  0  0  0  0  0  0  0  0
   51.5750   55.8910   21.9660 S   0  0  0  0  0  0  0  0  0  0  0  0
   51.9260   55.0410   23.0490 O   0  0  0  0  0  0  0  0  0  0  0  0
   50.5750   56.8940   22.0780 O   0  0  0  0  0  0  0  0  0  0  0  0
   52.9650   56.6590   21.4980 N   0  0  0  0  0  0  0  0  0  0  0  0
   53.6770   56.1560   21.0700 H   0  0  0  0  0  0  0  0  0  0  0  0
   53.1220   58.0980   21.7290 C   0  0  0  0  0  0  0  0  0  0  0  0
   49.9360   52.3560   17.5010 N   0  0  0  0  0  0  0  0  0  0  0  0
   50.4100   52.3890   16.6570 H   0  0  0  0  0  0  0  0  0  0  0  0
   47.6050   51.9390   16.8880 C   0  0  0  0  0  0  0  0  0  0  0  0
   48.8140   51.4300   17.6760 C   0  0  1  0  0  0  0  0  0  0  0  0
   49.2110   50.0450   17.1610 C   0  0  0  0  0  0  0  0  0  0  0  0
   49.1240   49.0310   18.3040 C   0  0  0  0  0  0  0  0  0  0  0  0
   47.6620   48.8540   18.7180 C   0  0  0  0  0  0  0  0  0  0  0  0
   49.9350   49.5390   19.4980 C   0  0  0  0  0  0  0  0  0  0  0  0
  1  2  2  0  0  0  0
  1  6  1  0  0  0  0
  2  3  1  0  0  0  0
  3  4  2  0  0  0  0
  4  7  1  0  0  0  0
  5  4  1  0  0  0  0
  6  5  2  0  0  0  0
  7  9  2  0  0  0  0
  7  8  2  0  0  0  0
 10 12  1  0  0  0  0
 10  7  1  0  0  0  0
 11 10  1  0  0  0  0
 13 16  1  0  0  0  0
 13  1  1  0  0  0  0
 14 13  1  0  0  0  0
 16 15  1  6  0  0  0
 17 16  1  0  0  0  0
 17 18  1  0  0  0  0
 18 19  1  0  0  0  0
 18 20  1  0  0  0  0
M  END
>  <MODEL>
8

>  <REMARK>
  Name = ZINC35062176
                            x       y       z     vdW  Elec       q    Type
                         _______ _______ _______ _____ _____    ______ ____

>  <TORSDO>
F 6

>  <minimizedAffinity>
-6.7627427916156861

$$$$
ZINC35062176
 OpenBabel10211214373D

 20 20  0  0  1  0  0  0  0  0999 V2000
   49.2990   51.0730   17.8460 C   0  0  0  0  0  0  0  0  0  0  0  0
   48.0490   51.2880   17.2770 C   0  0  0  0  0  0  0  0  0  0  0  0
   47.1020   50.2840   17.2970 C   0  0  0  0  0  0  0  0  0  0  0  0
   47.3950   49.0650   17.8820 C   0  0  0  0  0  0  0  0  0  0  0  0
   48.6380   48.8480   18.4480 C   0  0  0  0  0  0  0  0  0  0  0  0
   49.5930   49.8460   18.4280 C   0  0  0  0  0  0  0  0  0  0  0  0
   46.1820   47.7870   17.9050 S   0  0  0  0  0  0  0  0  0  0  0  0
   45.7610   47.6520   19.2550 O   0  0  0  0  0  0  0  0  0  0  0  0
   46.7220   46.7020   17.1630 O   0  0  0  0  0  0  0  0  0  0  0  0
   44.8740   48.3380   17.0530 N   0  0  0  0  0  0  0  0  0  0  0  0
   44.2370   48.9350   17.4760 H   0  0  0  0  0  0  0  0  0  0  0  0
   44.6780   47.9240   15.6610 C   0  0  0  0  0  0  0  0  0  0  0  0
   50.2600   52.0860   17.8280 N   0  0  0  0  0  0  0  0  0  0  0  0
   50.3630   52.6440   17.0420 H   0  0  0  0  0  0  0  0  0  0  0  0
   52.4490   52.9040   18.5530 C   0  0  0  0  0  0  0  0  0  0  0  0
   51.1120   52.3080   19.0000 C   0  0  1  0  0  0  0  0  0  0  0  0
   50.4180   53.2760   19.9600 C   0  0  0  0  0  0  0  0  0  0  0  0
   50.6030   52.7890   21.3980 C   0  0  0  0  0  0  0  0  0  0  0  0
   51.5690   53.7200   22.1330 C   0  0  0  0  0  0  0  0  0  0  0  0
   51.1730   51.3690   21.3860 C   0  0  0  0  0  0  0  0  0  0  0  0
  1  6  2  0  0  0  0
  2  3  2  0  0  0  0
  2  1  1  0  0  0  0
  3  4  1  0  0  0  0
  4  7  1  0  0  0  0
  4  5  2  0  0  0  0
  6  5  1  0  0  0  0
  7  8  2  0  0  0  0
  9  7  2  0  0  0  0
 10 11  1  0  0  0  0
 10  7  1  0  0  0  0
 12 10  1  0  0  0  0
 13  1  1  0  0  0  0
 14 13  1  0  0  0  0
 15 16  1  0  0  0  0
 16 13  1  6  0  0  0
 16 17  1  0  0  0  0
 17 18  1  0  0  0  0
 18 19  1  0  0  0  0
 20 18  1  0  0  0  0
M  END
>  <MODEL>
9

>  <REMARK>
  Name = ZINC35062176
                            x       y       z     vdW  Elec       q    Type
                         _______ _______ _______ _____ _____    ______ ____

>  <TORSDO>
F 6

>  <minimizedAffinity>
-6.6790467860901703

$$$$
ZINC08346065
 OpenBabel10211214383D

 27 29  0  0  1  0  0  0  0  0999 V2000
   49.0820   51.6920   17.3350 C   0  0  0  0  0  0  0  0  0  0  0  0
   49.7670   52.3360   18.4580 N   0  0  0  0  0  0  0  0  0  0  0  0
   50.5370   51.9090   18.8650 H   0  0  0  0  0  0  0  0  0  0  0  0
   49.3270   53.5200   18.9270 C   0  0  0  0  0  0  0  0  0  0  0  0
   48.3620   54.0550   18.4170 O   0  0  0  0  0  0  0  0  0  0  0  0
   50.0180   54.1690   20.0580 C   0  0  0  0  0  0  0  0  0  0  0  0
   50.9000   53.4330   20.8550 C   0  0  0  0  0  0  0  0  0  0  0  0
   51.5430   54.0420   21.9070 C   0  0  0  0  0  0  0  0  0  0  0  0
   51.3170   55.3880   22.1800 C   0  0  0  0  0  0  0  0  0  0  0  0
   50.4400   56.1230   21.3880 C   0  0  0  0  0  0  0  0  0  0  0  0
   49.7930   55.5210   20.3340 C   0  0  0  0  0  0  0  0  0  0  0  0
   51.9700   55.9990   23.2450 N   0  0  0  0  0  0  0  0  0  0  0  0
   52.5530   56.7580   23.0850 H   0  0  0  0  0  0  0  0  0  0  0  0
   51.8420   55.6680   24.1480 H   0  0  0  0  0  0  0  0  0  0  0  0
   49.4700   50.2130   17.2800 C   0  0  2  0  0  0  0  0  0  0  0  0
   48.2460   49.4030   17.1110 N   0  0  0  0  0  0  0  0  0  0  0  0
   48.2130   48.6910   17.8490 H   0  0  0  0  0  0  0  0  0  0  0  0
   47.0500   50.2650   17.2230 C   0  0  0  0  0  0  0  0  0  0  0  0
   45.7980   49.3890   17.1630 C   0  0  0  0  0  0  0  0  0  0  0  0
   45.7690   48.6380   15.8290 C   0  0  0  0  0  0  0  0  0  0  0  0
   47.0480   47.8050   15.6930 C   0  0  0  0  0  0  0  0  0  0  0  0
   48.2640   48.7280   15.7950 C   0  0  0  0  0  0  0  0  0  0  0  0
   50.6770   49.0000   20.5430 C   0  0  0  0  0  0  0  0  0  0  0  0
   49.6630   49.1240   19.5660 C   0  0  0  0  0  0  0  0  0  0  0  0
   50.1860   49.8330   18.5500 C   0  0  0  0  0  0  0  0  0  0  0  0
   51.4540   50.1500   18.8610 O   0  0  0  0  0  0  0  0  0  0  0  0
   51.7560   49.6470   20.0690 C   0  0  0  0  0  0  0  0  0  0  0  0
  1  2  1  0  0  0  0
  2  3  1  0  0  0  0
  2  4  1  0  0  0  0
  4  6  1  0  0  0  0
  5  4  2  0  0  0  0
  6 11  2  0  0  0  0
  6  7  1  0  0  0  0
  7  8  2  0  0  0  0
  8  9  1  0  0  0  0
  9 12  1  0  0  0  0
 10  9  2  0  0  0  0
 11 10  1  0  0  0  0
 12 14  1  0  0  0  0
 13 12  1  0  0  0  0
 15 16  1  1  0  0  0
 15  1  1  0  0  0  0
 15 25  1  0  0  0  0
 16 18  1  0  0  0  0
 16 17  1  0  0  0  0
 19 18  1  0  0  0  0
 20 19  1  0  0  0  0
 21 22  1  0  0  0  0
 21 20  1  0  0  0  0
 22 16  1  0  0  0  0
 24 23  1  0  0  0  0
 25 26  1  0  0  0  0
 25 24  2  0  0  0  0
 26 27  1  0  0  0  0
 27 23  2  0  0  0  0
M  END
>  <MODEL>
1

>  <REMARK>
  Name = ZINC08346065
                            x       y       z     vdW  Elec       q    Type
                         _______ _______ _______ _____ _____    ______ ____

>  <TORSDO>
F 6

>  <minimizedAffinity>
-8.0117340911688739

$$$$
ZINC08346065
 OpenBabel10211214383D

 27 29  0  0  1  0  0  0  0  0999 V2000
   48.5820   53.2480   17.2980 C   0  0  0  0  0  0  0  0  0  0  0  0
   48.6740   54.1170   18.4730 N   0  0  0  0  0  0  0  0  0  0  0  0
   48.7150   53.7280   19.3610 H   0  0  0  0  0  0  0  0  0  0  0  0
   48.7020   55.4560   18.3210 C   0  0  0  0  0  0  0  0  0  0  0  0
   48.6510   55.9430   17.2080 O   0  0  0  0  0  0  0  0  0  0  0  0
   48.7950   56.3310   19.5060 C   0  0  0  0  0  0  0  0  0  0  0  0
   49.8620   56.1900   20.3990 C   0  0  0  0  0  0  0  0  0  0  0  0
   49.9460   57.0090   21.5000 C   0  0  0  0  0  0  0  0  0  0  0  0
   48.9720   57.9760   21.7280 C   0  0  0  0  0  0  0  0  0  0  0  0
   47.9090   58.1200   20.8410 C   0  0  0  0  0  0  0  0  0  0  0  0
   47.8180   57.3040   19.7360 C   0  0  0  0  0  0  0  0  0  0  0  0
   49.0620   58.8020   22.8430 N   0  0  0  0  0  0  0  0  0  0  0  0
   49.4260   58.4570   23.6740 H   0  0  0  0  0  0  0  0  0  0  0  0
   48.7610   59.7230   22.7910 H   0  0  0  0  0  0  0  0  0  0  0  0
   49.4530   52.0080   17.5090 C   0  0  2  0  0  0  0  0  0  0  0  0
   48.5900   50.8790   17.9120 N   0  0  0  0  0  0  0  0  0  0  0  0
   48.2410   51.0490   18.8630 H   0  0  0  0  0  0  0  0  0  0  0  0
   47.4380   50.7710   16.9920 C   0  0  0  0  0  0  0  0  0  0  0  0
   46.5000   49.6740   17.4970 C   0  0  0  0  0  0  0  0  0  0  0  0
   47.2550   48.3420   17.5390 C   0  0  0  0  0  0  0  0  0  0  0  0
   48.4860   48.4900   18.4380 C   0  0  0  0  0  0  0  0  0  0  0  0
   49.3670   49.6210   17.9050 C   0  0  0  0  0  0  0  0  0  0  0  0
   52.3740   52.7810   19.6190 C   0  0  0  0  0  0  0  0  0  0  0  0
   51.7780   52.5870   18.3520 C   0  0  0  0  0  0  0  0  0  0  0  0
   50.4840   52.2930   18.5710 C   0  0  0  0  0  0  0  0  0  0  0  0
   50.2670   52.2900   19.8960 O   0  0  0  0  0  0  0  0  0  0  0  0
   51.4100   52.5860   20.5370 C   0  0  0  0  0  0  0  0  0  0  0  0
  1  2  1  0  0  0  0
  2  3  1  0  0  0  0
  4  2  1  0  0  0  0
  4  6  1  0  0  0  0
  5  4  2  0  0  0  0
  6 11  2  0  0  0  0
  6  7  1  0  0  0  0
  7  8  2  0  0  0  0
  8  9  1  0  0  0  0
  9 12  1  0  0  0  0
 10  9  2  0  0  0  0
 11 10  1  0  0  0  0
 12 13  1  0  0  0  0
 14 12  1  0  0  0  0
 15  1  1  1  0  0  0
 15 16  1  0  0  0  0
 15 25  1  0  0  0  0
 16 17  1  0  0  0  0
 18 19  1  0  0  0  0
 18 16  1  0  0  0  0
 19 20  1  0  0  0  0
 20 21  1  0  0  0  0
 22 16  1  0  0  0  0
 22 21  1  0  0  0  0
 23 27  2  0  0  0  0
 24 25  2  0  0  0  0
 24 23  1  0  0  0  0
 25 26  1  0  0  0  0
 26 27  1  0  0  0  0
M  END
>  <MODEL>
2

>  <REMARK>
  Name = ZINC08346065
                            x       y       z     vdW  Elec       q    Type
                         _______ _______ _______ _____ _____    ______ ____

>  <TORSDO>
F 6

>  <minimizedAffinity>
-7.7948028092783543

$$$$
ZINC08346065
 OpenBabel10211214383D

 27 29  0  0  1  0  0  0  0  0999 V2000
   49.2350   52.8620   17.7900 C   0  0  0  0  0  0  0  0  0  0  0  0
   50.0600   53.8340   18.5090 N   0  0  0  0  0  0  0  0  0  0  0  0
   51.0230   53.8350   18.3900 H   0  0  0  0  0  0  0  0  0  0  0  0
   49.4830   54.7270   19.3360 C   0  0  0  0  0  0  0  0  0  0  0  0
   48.2760   54.7260   19.4850 O   0  0  0  0  0  0  0  0  0  0  0  0
   50.3140   55.7080   20.0600 C   0  0  0  0  0  0  0  0  0  0  0  0
   49.7820   56.4140   21.1440 C   0  0  0  0  0  0  0  0  0  0  0  0
   50.5610   57.3250   21.8170 C   0  0  0  0  0  0  0  0  0  0  0  0
   51.8770   57.5470   21.4220 C   0  0  0  0  0  0  0  0  0  0  0  0
   52.4100   56.8450   20.3440 C   0  0  0  0  0  0  0  0  0  0  0  0
   51.6370   55.9320   19.6660 C   0  0  0  0  0  0  0  0  0  0  0  0
   52.6620   58.4690   22.1060 N   0  0  0  0  0  0  0  0  0  0  0  0
   52.4010   58.7630   22.9940 H   0  0  0  0  0  0  0  0  0  0  0  0
   53.4690   58.8190   21.6970 H   0  0  0  0  0  0  0  0  0  0  0  0
   50.0230   51.5640   17.6000 C   0  0  2  0  0  0  0  0  0  0  0  0
   49.0770   50.4680   17.3050 N   0  0  0  0  0  0  0  0  0  0  0  0
   49.1310   49.7700   18.0550 H   0  0  0  0  0  0  0  0  0  0  0  0
   47.6980   50.9960   17.2400 C   0  0  0  0  0  0  0  0  0  0  0  0
   46.7280   49.8280   17.0510 C   0  0  0  0  0  0  0  0  0  0  0  0
   47.0630   49.0980   15.7480 C   0  0  0  0  0  0  0  0  0  0  0  0
   48.5170   48.6200   15.7980 C   0  0  0  0  0  0  0  0  0  0  0  0
   49.4360   49.8230   16.0230 C   0  0  0  0  0  0  0  0  0  0  0  0
   51.4690   50.4300   20.7940 C   0  0  0  0  0  0  0  0  0  0  0  0
   50.4490   50.3990   19.8160 C   0  0  0  0  0  0  0  0  0  0  0  0
   50.8070   51.2640   18.8520 C   0  0  0  0  0  0  0  0  0  0  0  0
   51.9810   51.8210   19.1950 O   0  0  0  0  0  0  0  0  0  0  0  0
   52.3860   51.3180   20.3720 C   0  0  0  0  0  0  0  0  0  0  0  0
  1  2  1  0  0  0  0
  2  4  1  0  0  0  0
  3  2  1  0  0  0  0
  4  5  2  0  0  0  0
  4  6  1  0  0  0  0
  6  7  1  0  0  0  0
  7  8  2  0  0  0  0
  9  8  1  0  0  0  0
  9 12  1  0  0  0  0
 10  9  2  0  0  0  0
 11  6  2  0  0  0  0
 11 10  1  0  0  0  0
 12 13  1  0  0  0  0
 14 12  1  0  0  0  0
 15 16  1  1  0  0  0
 15  1  1  0  0  0  0
 15 25  1  0  0  0  0
 16 17  1  0  0  0  0
 18 16  1  0  0  0  0
 19 18  1  0  0  0  0
 20 21  1  0  0  0  0
 20 19  1  0  0  0  0
 21 22  1  0  0  0  0
 22 16  1  0  0  0  0
 24 23  1  0  0  0  0
 25 26  1  0  0  0  0
 25 24  2  0  0  0  0
 26 27  1  0  0  0  0
 27 23  2  0  0  0  0
M  END
>  <MODEL>
3

>  <REMARK>
  Name = ZINC08346065
                            x       y       z     vdW  Elec       q    Type
                         _______ _______ _______ _____ _____    ______ ____

>  <TORSDO>
F 6

>  <minimizedAffinity>
-7.744700217419517

$$$$
ZINC08346065
 OpenBabel10211214383D

 27 29  0  0  1  0  0  0  0  0999 V2000
   48.9080   52.6010   17.0920 C   0  0  0  0  0  0  0  0  0  0  0  0
   48.0730   51.5670   17.7070 N   0  0  0  0  0  0  0  0  0  0  0  0
   47.8790   51.6010   18.6560 H   0  0  0  0  0  0  0  0  0  0  0  0
   47.5750   50.5660   16.9530 C   0  0  0  0  0  0  0  0  0  0  0  0
   47.8180   50.5230   15.7630 O   0  0  0  0  0  0  0  0  0  0  0  0
   46.7340   49.5250   17.5720 C   0  0  0  0  0  0  0  0  0  0  0  0
   45.4510   49.2740   17.0770 C   0  0  0  0  0  0  0  0  0  0  0  0
   44.6700   48.3010   17.6560 C   0  0  0  0  0  0  0  0  0  0  0  0
   45.1550   47.5660   18.7340 C   0  0  0  0  0  0  0  0  0  0  0  0
   46.4330   47.8120   19.2290 C   0  0  0  0  0  0  0  0  0  0  0  0
   47.2190   48.7850   18.6550 C   0  0  0  0  0  0  0  0  0  0  0  0
   44.3620   46.5830   19.3160 N   0  0  0  0  0  0  0  0  0  0  0  0
   43.5010   46.8170   19.6970 H   0  0  0  0  0  0  0  0  0  0  0  0
   44.6690   45.6630   19.3410 H   0  0  0  0  0  0  0  0  0  0  0  0
   49.9910   53.0380   18.0800 C   0  0  2  0  0  0  0  0  0  0  0  0
   50.1690   51.9780   19.0940 N   0  0  0  0  0  0  0  0  0  0  0  0
   49.2460   51.6640   19.4140 H   0  0  0  0  0  0  0  0  0  0  0  0
   50.8870   50.8300   18.5020 C   0  0  0  0  0  0  0  0  0  0  0  0
   50.9560   49.7020   19.5340 C   0  0  0  0  0  0  0  0  0  0  0  0
   51.7050   50.1950   20.7750 C   0  0  0  0  0  0  0  0  0  0  0  0
   50.9910   51.4290   21.3350 C   0  0  0  0  0  0  0  0  0  0  0  0
   50.9220   52.5080   20.2510 C   0  0  0  0  0  0  0  0  0  0  0  0
   48.4460   55.9100   19.7970 C   0  0  0  0  0  0  0  0  0  0  0  0
   48.3970   54.5810   19.3170 C   0  0  0  0  0  0  0  0  0  0  0  0
   49.5830   54.3330   18.7340 C   0  0  0  0  0  0  0  0  0  0  0  0
   50.3410   55.4380   18.8260 O   0  0  0  0  0  0  0  0  0  0  0  0
   49.6560   56.3970   19.4710 C   0  0  0  0  0  0  0  0  0  0  0  0
  1  2  1  0  0  0  0
  2  3  1  0  0  0  0
  4  6  1  0  0  0  0
  4  2  1  0  0  0  0
  5  4  2  0  0  0  0
  6 11  1  0  0  0  0
  7  6  2  0  0  0  0
  7  8  1  0  0  0  0
  8  9  2  0  0  0  0
  9 10  1  0  0  0  0
  9 12  1  0  0  0  0
 11 10  2  0  0  0  0
 12 14  1  0  0  0  0
 12 13  1  0  0  0  0
 15  1  1  1  0  0  0
 15 25  1  0  0  0  0
 15 16  1  0  0  0  0
 16 17  1  0  0  0  0
 16 22  1  0  0  0  0
 18 16  1  0  0  0  0
 18 19  1  0  0  0  0
 19 20  1  0  0  0  0
 20 21  1  0  0  0  0
 22 21  1  0  0  0  0
 24 23  1  0  0  0  0
 25 26  1  0  0  0  0
 25 24  2  0  0  0  0
 26 27  1  0  0  0  0
 27 23  2  0  0  0  0
M  END
>  <MODEL>
4

>  <REMARK>
  Name = ZINC08346065
                            x       y       z     vdW  Elec       q    Type
                         _______ _______ _______ _____ _____    ______ ____

>  <TORSDO>
F 6

>  <minimizedAffinity>
-7.5821088372219867

$$$$
ZINC08346065
 OpenBabel10211214383D

 27 29  0  0  1  0  0  0  0  0999 V2000
   48.4290   53.0790   16.9900 C   0  0  0  0  0  0  0  0  0  0  0  0
   47.5520   51.9120   17.1020 N   0  0  0  0  0  0  0  0  0  0  0  0
   46.8160   51.9180   17.7330 H   0  0  0  0  0  0  0  0  0  0  0  0
   47.7670   50.8300   16.3280 C   0  0  0  0  0  0  0  0  0  0  0  0
   48.6900   50.8230   15.5360 O   0  0  0  0  0  0  0  0  0  0  0  0
   46.8830   49.6540   16.4400 C   0  0  0  0  0  0  0  0  0  0  0  0
   47.0250   48.5830   15.5540 C   0  0  0  0  0  0  0  0  0  0  0  0
   46.2000   47.4880   15.6630 C   0  0  0  0  0  0  0  0  0  0  0  0
   45.2240   47.4460   16.6540 C   0  0  0  0  0  0  0  0  0  0  0  0
   45.0790   48.5100   17.5390 C   0  0  0  0  0  0  0  0  0  0  0  0
   45.9020   49.6090   17.4350 C   0  0  0  0  0  0  0  0  0  0  0  0
   44.3910   46.3360   16.7610 N   0  0  0  0  0  0  0  0  0  0  0  0
   43.4960   46.3640   16.3880 H   0  0  0  0  0  0  0  0  0  0  0  0
   44.7060   45.5350   17.2070 H   0  0  0  0  0  0  0  0  0  0  0  0
   49.0830   53.3580   18.3440 C   0  0  2  0  0  0  0  0  0  0  0  0
   49.0920   54.8170   18.5810 N   0  0  0  0  0  0  0  0  0  0  0  0
   50.0640   55.1470   18.5940 H   0  0  0  0  0  0  0  0  0  0  0  0
   48.3660   55.5080   17.4940 C   0  0  0  0  0  0  0  0  0  0  0  0
   48.4890   57.0190   17.6980 C   0  0  0  0  0  0  0  0  0  0  0  0
   47.8790   57.3990   19.0500 C   0  0  0  0  0  0  0  0  0  0  0  0
   48.5920   56.6200   20.1600 C   0  0  0  0  0  0  0  0  0  0  0  0
   48.4650   55.1210   19.8850 C   0  0  0  0  0  0  0  0  0  0  0  0
   52.6820   52.5960   18.5690 C   0  0  0  0  0  0  0  0  0  0  0  0
   51.5920   53.4830   18.7210 C   0  0  0  0  0  0  0  0  0  0  0  0
   50.4880   52.8130   18.3470 C   0  0  0  0  0  0  0  0  0  0  0  0
   50.8500   51.5750   17.9700 O   0  0  0  0  0  0  0  0  0  0  0  0
   52.1790   51.4380   18.1030 C   0  0  0  0  0  0  0  0  0  0  0  0
  1  2  1  0  0  0  0
  2  3  1  0  0  0  0
  4  6  1  0  0  0  0
  4  2  1  0  0  0  0
  5  4  2  0  0  0  0
  6 11  2  0  0  0  0
  7  8  2  0  0  0  0
  7  6  1  0  0  0  0
  8  9  1  0  0  0  0
  9 12  1  0  0  0  0
  9 10  2  0  0  0  0
 11 10  1  0  0  0  0
 12 14  1  0  0  0  0
 13 12  1  0  0  0  0
 15  1  1  6  0  0  0
 15 25  1  0  0  0  0
 15 16  1  0  0  0  0
 16 17  1  0  0  0  0
 16 22  1  0  0  0  0
 18 19  1  0  0  0  0
 18 16  1  0  0  0  0
 19 20  1  0  0  0  0
 20 21  1  0  0  0  0
 22 21  1  0  0  0  0
 23 24  1  0  0  0  0
 25 24  2  0  0  0  0
 26 27  1  0  0  0  0
 26 25  1  0  0  0  0
 27 23  2  0  0  0  0
M  END
>  <MODEL>
5

>  <REMARK>
  Name = ZINC08346065
                            x       y       z     vdW  Elec       q    Type
                         _______ _______ _______ _____ _____    ______ ____

>  <TORSDO>
F 6

>  <minimizedAffinity>
-7.4267569200852002

$$$$
ZINC08346065
 OpenBabel10211214383D

 27 29  0  0  1  0  0  0  0  0999 V2000
   50.8340   53.6260   18.7380 C   0  0  0  0  0  0  0  0  0  0  0  0
   50.3060   54.9840   18.8820 N   0  0  0  0  0  0  0  0  0  0  0  0
   50.9100   55.7430   18.8700 H   0  0  0  0  0  0  0  0  0  0  0  0
   48.9810   55.1790   19.0340 C   0  0  0  0  0  0  0  0  0  0  0  0
   48.2240   54.2280   19.0500 O   0  0  0  0  0  0  0  0  0  0  0  0
   48.4490   56.5480   19.1790 C   0  0  0  0  0  0  0  0  0  0  0  0
   48.3130   57.1160   20.4490 C   0  0  0  0  0  0  0  0  0  0  0  0
   47.8180   58.3920   20.5800 C   0  0  0  0  0  0  0  0  0  0  0  0
   47.4510   59.1180   19.4500 C   0  0  0  0  0  0  0  0  0  0  0  0
   47.5850   58.5560   18.1840 C   0  0  0  0  0  0  0  0  0  0  0  0
   48.0800   57.2790   18.0460 C   0  0  0  0  0  0  0  0  0  0  0  0
   46.9510   60.4090   19.5870 N   0  0  0  0  0  0  0  0  0  0  0  0
   46.4400   60.6490   20.3760 H   0  0  0  0  0  0  0  0  0  0  0  0
   47.1140   61.0690   18.8950 H   0  0  0  0  0  0  0  0  0  0  0  0
   52.0490   53.4510   19.6510 C   0  0  2  0  0  0  0  0  0  0  0  0
   52.0730   52.0630   20.1570 N   0  0  0  0  0  0  0  0  0  0  0  0
   52.6080   52.0360   21.0320 H   0  0  0  0  0  0  0  0  0  0  0  0
   50.6950   51.6000   20.4240 C   0  0  0  0  0  0  0  0  0  0  0  0
   50.7520   50.2080   21.0550 C   0  0  0  0  0  0  0  0  0  0  0  0
   51.4440   49.2420   20.0890 C   0  0  0  0  0  0  0  0  0  0  0  0
   52.8430   49.7720   19.7640 C   0  0  0  0  0  0  0  0  0  0  0  0
   52.7250   51.1760   19.1690 C   0  0  0  0  0  0  0  0  0  0  0  0
   51.6450   55.3480   22.7850 C   0  0  0  0  0  0  0  0  0  0  0  0
   51.5680   54.1450   22.0470 C   0  0  0  0  0  0  0  0  0  0  0  0
   51.9650   54.4300   20.7940 C   0  0  0  0  0  0  0  0  0  0  0  0
   52.2690   55.7370   20.7310 O   0  0  0  0  0  0  0  0  0  0  0  0
   52.0760   56.2980   21.9360 C   0  0  0  0  0  0  0  0  0  0  0  0
  1  2  1  0  0  0  0
  2  4  1  0  0  0  0
  3  2  1  0  0  0  0
  4  5  2  0  0  0  0
  4  6  1  0  0  0  0
  6  7  2  0  0  0  0
  7  8  1  0  0  0  0
  9 12  1  0  0  0  0
  9  8  2  0  0  0  0
 10  9  1  0  0  0  0
 11 10  2  0  0  0  0
 11  6  1  0  0  0  0
 12 13  1  0  0  0  0
 14 12  1  0  0  0  0
 15  1  1  1  0  0  0
 15 16  1  0  0  0  0
 15 25  1  0  0  0  0
 16 18  1  0  0  0  0
 16 17  1  0  0  0  0
 18 19  1  0  0  0  0
 20 19  1  0  0  0  0
 21 20  1  0  0  0  0
 22 21  1  0  0  0  0
 22 16  1  0  0  0  0
 24 23  1  0  0  0  0
 25 24  2  0  0  0  0
 26 25  1  0  0  0  0
 26 27  1  0  0  0  0
 27 23  2  0  0  0  0
M  END
>  <MODEL>
6

>  <REMARK>
  Name = ZINC08346065
                            x       y       z     vdW  Elec       q    Type
                         _______ _______ _______ _____ _____    ______ ____

>  <TORSDO>
F 6

>  <minimizedAffinity>
-7.412871203758745

$$$$
ZINC08346065
 OpenBabel10211214383D

 27 29  0  0  1  0  0  0  0  0999 V2000
   49.9930   54.0290   18.6580 C   0  0  0  0  0  0  0  0  0  0  0  0
   49.5260   52.7610   18.0940 N   0  0  0  0  0  0  0  0  0  0  0  0
   49.9240   51.9250   18.3840 H   0  0  0  0  0  0  0  0  0  0  0  0
   48.5450   52.7550   17.1700 C   0  0  0  0  0  0  0  0  0  0  0  0
   48.0470   53.8020   16.8050 O   0  0  0  0  0  0  0  0  0  0  0  0
   48.0740   51.4770   16.6020 C   0  0  0  0  0  0  0  0  0  0  0  0
   48.6960   50.9420   15.4700 C   0  0  0  0  0  0  0  0  0  0  0  0
   48.2560   49.7490   14.9440 C   0  0  0  0  0  0  0  0  0  0  0  0
   47.1920   49.0760   15.5370 C   0  0  0  0  0  0  0  0  0  0  0  0
   46.5710   49.6050   16.6640 C   0  0  0  0  0  0  0  0  0  0  0  0
   47.0060   50.7980   17.1950 C   0  0  0  0  0  0  0  0  0  0  0  0
   46.7500   47.8700   15.0030 N   0  0  0  0  0  0  0  0  0  0  0  0
   47.1540   47.0350   15.2900 H   0  0  0  0  0  0  0  0  0  0  0  0
   46.0380   47.8630   14.3440 H   0  0  0  0  0  0  0  0  0  0  0  0
   50.2420   53.8600   20.1580 C   0  0  2  0  0  0  0  0  0  0  0  0
   50.8700   55.0910   20.6810 N   0  0  0  0  0  0  0  0  0  0  0  0
   51.3660   54.8680   21.5520 H   0  0  0  0  0  0  0  0  0  0  0  0
   51.8410   55.6180   19.6990 C   0  0  0  0  0  0  0  0  0  0  0  0
   52.5620   56.8210   20.3100 C   0  0  0  0  0  0  0  0  0  0  0  0
   51.5360   57.9050   20.6540 C   0  0  0  0  0  0  0  0  0  0  0  0
   50.4940   57.3240   21.6140 C   0  0  0  0  0  0  0  0  0  0  0  0
   49.8330   56.1060   20.9650 C   0  0  0  0  0  0  0  0  0  0  0  0
   52.2010   50.9610   21.3130 C   0  0  0  0  0  0  0  0  0  0  0  0
   51.2700   51.9980   21.5450 C   0  0  0  0  0  0  0  0  0  0  0  0
   51.1360   52.6690   20.3880 C   0  0  0  0  0  0  0  0  0  0  0  0
   51.9400   52.1020   19.4730 O   0  0  0  0  0  0  0  0  0  0  0  0
   52.5880   51.0650   20.0290 C   0  0  0  0  0  0  0  0  0  0  0  0
  2  3  1  0  0  0  0
  2  1  1  0  0  0  0
  4  2  1  0  0  0  0
  5  4  2  0  0  0  0
  6  4  1  0  0  0  0
  6 11  2  0  0  0  0
  7  6  1  0  0  0  0
  8  7  2  0  0  0  0
  8  9  1  0  0  0  0
  9 10  2  0  0  0  0
 10 11  1  0  0  0  0
 12 13  1  0  0  0  0
 12  9  1  0  0  0  0
 14 12  1  0  0  0  0
 15  1  1  6  0  0  0
 15 25  1  0  0  0  0
 15 16  1  0  0  0  0
 16 22  1  0  0  0  0
 16 17  1  0  0  0  0
 18 19  1  0  0  0  0
 18 16  1  0  0  0  0
 19 20  1  0  0  0  0
 20 21  1  0  0  0  0
 22 21  1  0  0  0  0
 23 24  1  0  0  0  0
 25 24  2  0  0  0  0
 26 27  1  0  0  0  0
 26 25  1  0  0  0  0
 27 23  2  0  0  0  0
M  END
>  <MODEL>
7

>  <REMARK>
  Name = ZINC08346065
                            x       y       z     vdW  Elec       q    Type
                         _______ _______ _______ _____ _____    ______ ____

>  <TORSDO>
F 6

>  <minimizedAffinity>
-7.3834769878211803

$$$$
ZINC08346065
 OpenBabel10211214383D

 27 29  0  0  1  0  0  0  0  0999 V2000
   48.8610   53.5600   17.7950 C   0  0  0  0  0  0  0  0  0  0  0  0
   48.0620   52.3340   17.7680 N   0  0  0  0  0  0  0  0  0  0  0  0
   47.1830   52.3180   18.1770 H   0  0  0  0  0  0  0  0  0  0  0  0
   48.5490   51.2250   17.1760 C   0  0  0  0  0  0  0  0  0  0  0  0
   49.6510   51.2430   16.6630 O   0  0  0  0  0  0  0  0  0  0  0  0
   47.7440   49.9890   17.1490 C   0  0  0  0  0  0  0  0  0  0  0  0
   47.5160   49.2750   18.3290 C   0  0  0  0  0  0  0  0  0  0  0  0
   46.7630   48.1240   18.3000 C   0  0  0  0  0  0  0  0  0  0  0  0
   46.2290   47.6690   17.0970 C   0  0  0  0  0  0  0  0  0  0  0  0
   46.4540   48.3770   15.9200 C   0  0  0  0  0  0  0  0  0  0  0  0
   47.2060   49.5300   15.9420 C   0  0  0  0  0  0  0  0  0  0  0  0
   45.4690   46.5050   17.0720 N   0  0  0  0  0  0  0  0  0  0  0  0
   45.8710   45.6580   17.3240 H   0  0  0  0  0  0  0  0  0  0  0  0
   44.5370   46.5390   16.8050 H   0  0  0  0  0  0  0  0  0  0  0  0
   49.4700   53.7430   19.1860 C   0  0  2  0  0  0  0  0  0  0  0  0
   49.4240   55.1760   19.5450 N   0  0  0  0  0  0  0  0  0  0  0  0
   49.8800   55.7200   18.8030 H   0  0  0  0  0  0  0  0  0  0  0  0
   48.0200   55.6200   19.6690 C   0  0  0  0  0  0  0  0  0  0  0  0
   47.9960   57.1280   19.9240 C   0  0  0  0  0  0  0  0  0  0  0  0
   48.7530   57.4350   21.2200 C   0  0  0  0  0  0  0  0  0  0  0  0
   50.1840   56.9040   21.1040 C   0  0  0  0  0  0  0  0  0  0  0  0
   50.1440   55.4020   20.8160 C   0  0  0  0  0  0  0  0  0  0  0  0
   52.7300   52.0690   19.5700 C   0  0  0  0  0  0  0  0  0  0  0  0
   51.3510   52.1760   19.8610 C   0  0  0  0  0  0  0  0  0  0  0  0
   50.8910   53.2430   19.1830 C   0  0  0  0  0  0  0  0  0  0  0  0
   51.9140   53.7890   18.5070 O   0  0  0  0  0  0  0  0  0  0  0  0
   53.0320   53.0810   18.7380 C   0  0  0  0  0  0  0  0  0  0  0  0
  2  1  1  0  0  0  0
  2  3  1  0  0  0  0
  4  2  1  0  0  0  0
  5  4  2  0  0  0  0
  6  4  1  0  0  0  0
  6  7  2  0  0  0  0
  8  7  1  0  0  0  0
  9  8  2  0  0  0  0
 10 11  2  0  0  0  0
 10  9  1  0  0  0  0
 11  6  1  0  0  0  0
 12  9  1  0  0  0  0
 12 13  1  0  0  0  0
 14 12  1  0  0  0  0
 15  1  1  6  0  0  0
 15 16  1  0  0  0  0
 16 18  1  0  0  0  0
 16 22  1  0  0  0  0
 17 16  1  0  0  0  0
 18 19  1  0  0  0  0
 19 20  1  0  0  0  0
 21 20  1  0  0  0  0
 22 21  1  0  0  0  0
 23 24  1  0  0  0  0
 25 15  1  0  0  0  0
 25 24  2  0  0  0  0
 26 27  1  0  0  0  0
 26 25  1  0  0  0  0
 27 23  2  0  0  0  0
M  END
>  <MODEL>
8

>  <REMARK>
  Name = ZINC08346065
                            x       y       z     vdW  Elec       q    Type
                         _______ _______ _______ _____ _____    ______ ____

>  <TORSDO>
F 6

>  <minimizedAffinity>
-7.3465531128974293

$$$$
ZINC08346065
 OpenBabel10211214383D

 27 29  0  0  1  0  0  0  0  0999 V2000
   48.7500   55.4720   18.8320 C   0  0  0  0  0  0  0  0  0  0  0  0
   49.5730   54.3310   19.2370 N   0  0  0  0  0  0  0  0  0  0  0  0
   50.1060   54.3800   20.0460 H   0  0  0  0  0  0  0  0  0  0  0  0
   49.5930   53.2130   18.4840 C   0  0  0  0  0  0  0  0  0  0  0  0
   48.9260   53.1520   17.4690 O   0  0  0  0  0  0  0  0  0  0  0  0
   50.4220   52.0630   18.8920 C   0  0  0  0  0  0  0  0  0  0  0  0
   49.9060   50.7660   18.8200 C   0  0  0  0  0  0  0  0  0  0  0  0
   50.6830   49.6960   19.1990 C   0  0  0  0  0  0  0  0  0  0  0  0
   51.9810   49.9030   19.6560 C   0  0  0  0  0  0  0  0  0  0  0  0
   52.4980   51.1940   19.7300 C   0  0  0  0  0  0  0  0  0  0  0  0
   51.7270   52.2680   19.3520 C   0  0  0  0  0  0  0  0  0  0  0  0
   52.7630   48.8190   20.0390 N   0  0  0  0  0  0  0  0  0  0  0  0
   53.6830   48.9580   20.3160 H   0  0  0  0  0  0  0  0  0  0  0  0
   52.3900   47.9240   20.0310 H   0  0  0  0  0  0  0  0  0  0  0  0
   48.8060   56.5520   19.9140 C   0  0  2  0  0  0  0  0  0  0  0  0
   48.4240   57.8490   19.3180 N   0  0  0  0  0  0  0  0  0  0  0  0
   49.2730   58.3990   19.1450 H   0  0  0  0  0  0  0  0  0  0  0  0
   47.7270   57.6270   18.0330 C   0  0  0  0  0  0  0  0  0  0  0  0
   47.4470   58.9810   17.3800 C   0  0  0  0  0  0  0  0  0  0  0  0
   46.5630   59.8180   18.3090 C   0  0  0  0  0  0  0  0  0  0  0  0
   47.2650   59.9790   19.6610 C   0  0  0  0  0  0  0  0  0  0  0  0
   47.5500   58.5950   20.2480 C   0  0  0  0  0  0  0  0  0  0  0  0
   51.9220   56.7810   21.8680 C   0  0  0  0  0  0  0  0  0  0  0  0
   50.5120   56.7700   21.7840 C   0  0  0  0  0  0  0  0  0  0  0  0
   50.1990   56.6210   20.4840 C   0  0  0  0  0  0  0  0  0  0  0  0
   51.3400   56.5500   19.7790 O   0  0  0  0  0  0  0  0  0  0  0  0
   52.3880   56.6460   20.6130 C   0  0  0  0  0  0  0  0  0  0  0  0
  1  2  1  0  0  0  0
  2  3  1  0  0  0  0
  4  6  1  0  0  0  0
  4  2  1  0  0  0  0
  5  4  2  0  0  0  0
  6 11  1  0  0  0  0
  7  6  2  0  0  0  0
  7  8  1  0  0  0  0
  8  9  2  0  0  0  0
  9 10  1  0  0  0  0
  9 12  1  0  0  0  0
 11 10  2  0  0  0  0
 12 13  1  0  0  0  0
 14 12  1  0  0  0  0
 15  1  1  6  0  0  0
 15 25  1  0  0  0  0
 16 15  1  0  0  0  0
 16 22  1  0  0  0  0
 17 16  1  0  0  0  0
 18 16  1  0  0  0  0
 19 18  1  0  0  0  0
 19 20  1  0  0  0  0
 20 21  1  0  0  0  0
 21 22  1  0  0  0  0
 24 23  1  0  0  0  0
 25 24  2  0  0  0  0
 26 25  1  0  0  0  0
 26 27  1  0  0  0  0
 27 23  2  0  0  0  0
M  END
>  <MODEL>
9

>  <REMARK>
  Name = ZINC08346065
                            x       y       z     vdW  Elec       q    Type
                         _______ _______ _______ _____ _____    ______ ____

>  <TORSDO>
F 6

>  <minimizedAffinity>
-7.3075148581091227

$$$$
ZINC50962522
 OpenBabel10211214393D

 25 27  0  0  1  0  0  0  0  0999 V2000
   50.5710   56.0740   20.2190 C   0  0  1  0  0  0  0  0  0  0  0  0
   51.0750   54.7130   20.6250 C   0  0  0  0  0  0  0  0  0  0  0  0
   51.1060   54.3600   21.9640 C   0  0  0  0  0  0  0  0  0  0  0  0
   51.5660   53.1150   22.3460 C   0  0  0  0  0  0  0  0  0  0  0  0
   51.9960   52.2140   21.3840 C   0  0  0  0  0  0  0  0  0  0  0  0
   51.9640   52.5690   20.0340 C   0  0  0  0  0  0  0  0  0  0  0  0
   52.4500   51.4770   19.3190 N   0  0  0  0  0  0  0  0  0  0  0  0
   52.7630   50.5030   20.1930 C   0  0  0  0  0  0  0  0  0  0  0  0
   53.2150   49.4120   19.8960 O   0  0  0  0  0  0  0  0  0  0  0  0
   52.5460   51.4270   18.3550 H   0  0  0  0  0  0  0  0  0  0  0  0
   52.5000   50.9160   21.4470 N   0  0  0  0  0  0  0  0  0  0  0  0
   52.6390   50.4000   22.2560 H   0  0  0  0  0  0  0  0  0  0  0  0
   51.4960   53.8190   19.6610 C   0  0  0  0  0  0  0  0  0  0  0  0
   51.7100   57.0910   20.3250 C   0  0  1  0  0  0  0  0  0  0  0  0
   51.5740   57.8750   21.6320 C   0  0  0  0  0  0  0  0  0  0  0  0
   52.7500   58.8480   21.7590 C   0  0  0  0  0  0  0  0  0  0  0  0
   54.0620   58.0590   21.6870 C   0  0  0  0  0  0  0  0  0  0  0  0
   54.1010   57.2680   20.3770 C   0  0  0  0  0  0  0  0  0  0  0  0
   52.9640   56.4050   20.3090 O   0  0  0  0  0  0  0  0  0  0  0  0
   50.0880   56.0230   18.8320 N   0  0  0  0  0  0  0  0  0  0  0  0
   50.7090   56.5540   18.2400 H   0  0  0  0  0  0  0  0  0  0  0  0
   50.0640   55.0640   18.5200 H   0  0  0  0  0  0  0  0  0  0  0  0
   48.7370   56.5940   18.7640 C   0  0  0  0  0  0  0  0  0  0  0  0
   47.5270   57.8800   20.5320 C   0  0  0  0  0  0  0  0  0  0  0  0
   48.0750   56.5060   20.1400 C   0  0  0  0  0  0  0  0  0  0  0  0
  1 20  1  6  0  0  0
  1 14  1  0  0  0  0
  1  2  1  0  0  0  0
  2  3  2  0  0  0  0
  3  4  1  0  0  0  0
  5 11  1  0  0  0  0
  5  4  2  0  0  0  0
  6  5  1  0  0  0  0
  7  6  1  0  0  0  0
  7  8  1  0  0  0  0
  8 11  1  0  0  0  0
  9  8  2  0  0  0  0
 10  7  1  0  0  0  0
 11 12  1  0  0  0  0
 13  6  2  0  0  0  0
 13  2  1  0  0  0  0
 14 19  1  1  0  0  0
 14 15  1  0  0  0  0
 15 16  1  0  0  0  0
 17 16  1  0  0  0  0
 18 17  1  0  0  0  0
 19 18  1  0  0  0  0
 21 20  1  0  0  0  0
 22 20  1  0  0  0  0
 23 20  1  0  0  0  0
 23 25  1  0  0  0  0
 25 24  1  0  0  0  0
M  END
>  <MODEL>
1

>  <REMARK>
  Name = ZINC50962522
                            x       y       z     vdW  Elec       q    Type
                         _______ _______ _______ _____ _____    ______ ____

>  <TORSDO>
F 5

>  <minimizedAffinity>
-8.1290648848691536

$$$$
ZINC50962522
 OpenBabel10211214393D

 25 27  0  0  1  0  0  0  0  0999 V2000
   51.0830   55.8180   20.1330 C   0  0  1  0  0  0  0  0  0  0  0  0
   51.1280   54.3770   20.5700 C   0  0  0  0  0  0  0  0  0  0  0  0
   51.5320   54.0580   21.8550 C   0  0  0  0  0  0  0  0  0  0  0  0
   51.5770   52.7400   22.2640 C   0  0  0  0  0  0  0  0  0  0  0  0
   51.2150   51.7320   21.3840 C   0  0  0  0  0  0  0  0  0  0  0  0
   50.8070   52.0530   20.0880 C   0  0  0  0  0  0  0  0  0  0  0  0
   50.5120   50.8510   19.4500 N   0  0  0  0  0  0  0  0  0  0  0  0
   50.7290   49.8450   20.3170 C   0  0  0  0  0  0  0  0  0  0  0  0
   50.5670   48.6630   20.0750 O   0  0  0  0  0  0  0  0  0  0  0  0
   50.2020   50.7550   18.5360 H   0  0  0  0  0  0  0  0  0  0  0  0
   51.1540   50.3440   21.4930 N   0  0  0  0  0  0  0  0  0  0  0  0
   51.3790   49.8260   22.2810 H   0  0  0  0  0  0  0  0  0  0  0  0
   50.7610   53.3790   19.6880 C   0  0  0  0  0  0  0  0  0  0  0  0
   49.6500   56.3420   20.2500 C   0  0  1  0  0  0  0  0  0  0  0  0
   49.5970   57.4560   21.2970 C   0  0  0  0  0  0  0  0  0  0  0  0
   48.1730   58.0160   21.3660 C   0  0  0  0  0  0  0  0  0  0  0  0
   47.7610   58.5060   19.9740 C   0  0  0  0  0  0  0  0  0  0  0  0
   47.8840   57.3500   18.9780 C   0  0  0  0  0  0  0  0  0  0  0  0
   49.2250   56.8560   18.9860 O   0  0  0  0  0  0  0  0  0  0  0  0
   51.9680   56.6180   20.9910 N   0  0  0  0  0  0  0  0  0  0  0  0
   51.5300   57.5040   21.1940 H   0  0  0  0  0  0  0  0  0  0  0  0
   52.1380   56.1230   21.8530 H   0  0  0  0  0  0  0  0  0  0  0  0
   53.2430   56.8490   20.2990 C   0  0  0  0  0  0  0  0  0  0  0  0
   53.0030   58.8310   21.8020 C   0  0  0  0  0  0  0  0  0  0  0  0
   53.9870   58.0030   20.9730 C   0  0  0  0  0  0  0  0  0  0  0  0
  1 14  1  0  0  0  0
  1  2  1  1  0  0  0
  1 20  1  0  0  0  0
  2  3  2  0  0  0  0
  3  4  1  0  0  0  0
  5 11  1  0  0  0  0
  5  4  2  0  0  0  0
  6  5  1  0  0  0  0
  7  6  1  0  0  0  0
  7  8  1  0  0  0  0
  8 11  1  0  0  0  0
  9  8  2  0  0  0  0
 10  7  1  0  0  0  0
 11 12  1  0  0  0  0
 13  6  2  0  0  0  0
 13  2  1  0  0  0  0
 14 19  1  6  0  0  0
 14 15  1  0  0  0  0
 15 16  1  0  0  0  0
 17 16  1  0  0  0  0
 18 19  1  0  0  0  0
 18 17  1  0  0  0  0
 20 21  1  0  0  0  0
 20 22  1  0  0  0  0
 23 25  1  0  0  0  0
 23 20  1  0  0  0  0
 25 24  1  0  0  0  0
M  END
>  <MODEL>
2

>  <REMARK>
  Name = ZINC50962522
                            x       y       z     vdW  Elec       q    Type
                         _______ _______ _______ _____ _____    ______ ____

>  <TORSDO>
F 5

>  <minimizedAffinity>
-8.0885873401968098

$$$$
ZINC50962522
 OpenBabel10211214393D

 25 27  0  0  1  0  0  0  0  0999 V2000
   49.3770   49.5270   17.5110 C   0  0  1  0  0  0  0  0  0  0  0  0
   49.9640   50.0890   18.7800 C   0  0  0  0  0  0  0  0  0  0  0  0
   50.2820   49.2430   19.8280 C   0  0  0  0  0  0  0  0  0  0  0  0
   50.8210   49.7500   20.9940 C   0  0  0  0  0  0  0  0  0  0  0  0
   51.0450   51.1120   21.1150 C   0  0  0  0  0  0  0  0  0  0  0  0
   50.7240   51.9670   20.0580 C   0  0  0  0  0  0  0  0  0  0  0  0
   51.0560   53.2550   20.4680 N   0  0  0  0  0  0  0  0  0  0  0  0
   51.5560   53.1890   21.7160 C   0  0  0  0  0  0  0  0  0  0  0  0
   51.9430   54.1410   22.3690 O   0  0  0  0  0  0  0  0  0  0  0  0
   50.9460   54.0640   19.9430 H   0  0  0  0  0  0  0  0  0  0  0  0
   51.5620   51.9100   22.1340 N   0  0  0  0  0  0  0  0  0  0  0  0
   51.8740   51.5960   22.9970 H   0  0  0  0  0  0  0  0  0  0  0  0
   50.1890   51.4470   18.8900 C   0  0  0  0  0  0  0  0  0  0  0  0
   47.9530   49.0360   17.7830 C   0  0  1  0  0  0  0  0  0  0  0  0
   46.9500   50.0740   17.2750 C   0  0  0  0  0  0  0  0  0  0  0  0
   45.5280   49.5480   17.4960 C   0  0  0  0  0  0  0  0  0  0  0  0
   45.3780   48.1990   16.7860 C   0  0  0  0  0  0  0  0  0  0  0  0
   46.4420   47.2330   17.3140 C   0  0  0  0  0  0  0  0  0  0  0  0
   47.7390   47.7950   17.1050 O   0  0  0  0  0  0  0  0  0  0  0  0
   49.3450   50.5730   16.4800 N   0  0  0  0  0  0  0  0  0  0  0  0
   48.4180   50.6310   16.0870 H   0  0  0  0  0  0  0  0  0  0  0  0
   49.5900   51.4600   16.8940 H   0  0  0  0  0  0  0  0  0  0  0  0
   50.3080   50.2450   15.4200 C   0  0  0  0  0  0  0  0  0  0  0  0
   48.2790   49.8620   14.0130 C   0  0  0  0  0  0  0  0  0  0  0  0
   49.6500   49.3080   14.4060 C   0  0  0  0  0  0  0  0  0  0  0  0
  1 20  1  1  0  0  0
  1 14  1  0  0  0  0
  1  2  1  0  0  0  0
  2 13  2  0  0  0  0
  2  3  1  0  0  0  0
  3  4  2  0  0  0  0
  4  5  1  0  0  0  0
  5 11  1  0  0  0  0
  6  7  1  0  0  0  0
  6  5  2  0  0  0  0
  7  8  1  0  0  0  0
  8 11  1  0  0  0  0
  8  9  2  0  0  0  0
 10  7  1  0  0  0  0
 11 12  1  0  0  0  0
 13  6  1  0  0  0  0
 14 19  1  6  0  0  0
 15 16  1  0  0  0  0
 15 14  1  0  0  0  0
 17 18  1  0  0  0  0
 17 16  1  0  0  0  0
 19 18  1  0  0  0  0
 20 22  1  0  0  0  0
 21 20  1  0  0  0  0
 23 20  1  0  0  0  0
 24 25  1  0  0  0  0
 25 23  1  0  0  0  0
M  END
>  <MODEL>
3

>  <REMARK>
  Name = ZINC50962522
                            x       y       z     vdW  Elec       q    Type
                         _______ _______ _______ _____ _____    ______ ____

>  <TORSDO>
F 5

>  <minimizedAffinity>
-8.0853369398819677

$$$$
ZINC50962522
 OpenBabel10211214393D

 25 27  0  0  1  0  0  0  0  0999 V2000
   51.0780   52.3910   19.7810 C   0  0  1  0  0  0  0  0  0  0  0  0
   51.4380   53.6340   20.5530 C   0  0  0  0  0  0  0  0  0  0  0  0
   51.1800   53.7010   21.9120 C   0  0  0  0  0  0  0  0  0  0  0  0
   51.5080   54.8350   22.6280 C   0  0  0  0  0  0  0  0  0  0  0  0
   52.0970   55.9110   21.9840 C   0  0  0  0  0  0  0  0  0  0  0  0
   52.3570   55.8440   20.6130 C   0  0  0  0  0  0  0  0  0  0  0  0
   52.9430   57.0560   20.2550 N   0  0  0  0  0  0  0  0  0  0  0  0
   53.0360   57.8250   21.3560 C   0  0  0  0  0  0  0  0  0  0  0  0
   53.5030   58.9490   21.3910 O   0  0  0  0  0  0  0  0  0  0  0  0
   53.2360   57.3040   19.3640 H   0  0  0  0  0  0  0  0  0  0  0  0
   52.5340   57.1620   22.4150 N   0  0  0  0  0  0  0  0  0  0  0  0
   52.4850   57.4980   23.3240 H   0  0  0  0  0  0  0  0  0  0  0  0
   52.0300   54.6990   19.9040 C   0  0  0  0  0  0  0  0  0  0  0  0
   50.3180   52.7820   18.5120 C   0  0  1  0  0  0  0  0  0  0  0  0
   49.6990   51.5330   17.8810 C   0  0  0  0  0  0  0  0  0  0  0  0
   48.8900   51.9410   16.6460 C   0  0  0  0  0  0  0  0  0  0  0  0
   47.8330   52.9690   17.0570 C   0  0  0  0  0  0  0  0  0  0  0  0
   48.5250   54.1640   17.7190 C   0  0  0  0  0  0  0  0  0  0  0  0
   49.2830   53.7110   18.8430 O   0  0  0  0  0  0  0  0  0  0  0  0
   52.3040   51.6690   19.4150 N   0  0  0  0  0  0  0  0  0  0  0  0
   52.2420   51.3660   18.4540 H   0  0  0  0  0  0  0  0  0  0  0  0
   53.0990   52.2810   19.5220 H   0  0  0  0  0  0  0  0  0  0  0  0
   52.4640   50.5000   20.2890 C   0  0  0  0  0  0  0  0  0  0  0  0
   50.6610   48.7740   20.3800 C   0  0  0  0  0  0  0  0  0  0  0  0
   51.1130   50.1370   20.9070 C   0  0  0  0  0  0  0  0  0  0  0  0
  1 20  1  6  0  0  0
  1  2  1  0  0  0  0
  2  3  1  0  0  0  0
  3  4  2  0  0  0  0
  5 11  1  0  0  0  0
  5  4  1  0  0  0  0
  6  5  2  0  0  0  0
  7  6  1  0  0  0  0
  7  8  1  0  0  0  0
  8  9  2  0  0  0  0
  8 11  1  0  0  0  0
 10  7  1  0  0  0  0
 11 12  1  0  0  0  0
 13  2  2  0  0  0  0
 13  6  1  0  0  0  0
 14 15  1  1  0  0  0
 14 19  1  0  0  0  0
 14  1  1  0  0  0  0
 16 17  1  0  0  0  0
 16 15  1  0  0  0  0
 17 18  1  0  0  0  0
 18 19  1  0  0  0  0
 20 22  1  0  0  0  0
 20 23  1  0  0  0  0
 21 20  1  0  0  0  0
 23 25  1  0  0  0  0
 24 25  1  0  0  0  0
M  END
>  <MODEL>
4

>  <REMARK>
  Name = ZINC50962522
                            x       y       z     vdW  Elec       q    Type
                         _______ _______ _______ _____ _____    ______ ____

>  <TORSDO>
F 5

>  <minimizedAffinity>
-7.8986035721847356

$$$$
ZINC50962522
 OpenBabel10211214393D

 25 27  0  0  1  0  0  0  0  0999 V2000
   50.5820   53.6630   18.7000 C   0  0  1  0  0  0  0  0  0  0  0  0
   50.7390   54.8740   19.5830 C   0  0  0  0  0  0  0  0  0  0  0  0
   49.6330   55.4120   20.2200 C   0  0  0  0  0  0  0  0  0  0  0  0
   49.7680   56.5210   21.0310 C   0  0  0  0  0  0  0  0  0  0  0  0
   51.0160   57.0980   21.2090 C   0  0  0  0  0  0  0  0  0  0  0  0
   52.1310   56.5560   20.5670 C   0  0  0  0  0  0  0  0  0  0  0  0
   53.2240   57.3370   20.9320 N   0  0  0  0  0  0  0  0  0  0  0  0
   52.7950   58.3100   21.7570 C   0  0  0  0  0  0  0  0  0  0  0  0
   53.5000   59.1670   22.2590 O   0  0  0  0  0  0  0  0  0  0  0  0
   54.1400   57.2040   20.6410 H   0  0  0  0  0  0  0  0  0  0  0  0
   51.4670   58.1930   21.9440 N   0  0  0  0  0  0  0  0  0  0  0  0
   50.9180   58.7710   22.4960 H   0  0  0  0  0  0  0  0  0  0  0  0
   51.9870   55.4390   19.7590 C   0  0  0  0  0  0  0  0  0  0  0  0
   51.4060   52.5060   19.2700 C   0  0  1  0  0  0  0  0  0  0  0  0
   50.6550   51.8740   20.4440 C   0  0  0  0  0  0  0  0  0  0  0  0
   51.4570   50.6800   20.9700 C   0  0  0  0  0  0  0  0  0  0  0  0
   51.6860   49.6880   19.8250 C   0  0  0  0  0  0  0  0  0  0  0  0
   52.3980   50.4050   18.6750 C   0  0  0  0  0  0  0  0  0  0  0  0
   51.6140   51.5230   18.2530 O   0  0  0  0  0  0  0  0  0  0  0  0
   49.1650   53.2760   18.6480 N   0  0  0  0  0  0  0  0  0  0  0  0
   49.0520   52.3590   19.0530 H   0  0  0  0  0  0  0  0  0  0  0  0
   48.6150   53.9430   19.1680 H   0  0  0  0  0  0  0  0  0  0  0  0
   48.7150   53.2540   17.2500 C   0  0  0  0  0  0  0  0  0  0  0  0
   48.2290   50.8190   17.5280 C   0  0  0  0  0  0  0  0  0  0  0  0
   47.6580   52.1630   17.0720 C   0  0  0  0  0  0  0  0  0  0  0  0
  1 20  1  1  0  0  0
  1 14  1  0  0  0  0
  1  2  1  0  0  0  0
  2 13  2  0  0  0  0
  2  3  1  0  0  0  0
  3  4  2  0  0  0  0
  4  5  1  0  0  0  0
  5 11  1  0  0  0  0
  6  7  1  0  0  0  0
  6  5  2  0  0  0  0
  7  8  1  0  0  0  0
  8 11  1  0  0  0  0
  8  9  2  0  0  0  0
 10  7  1  0  0  0  0
 11 12  1  0  0  0  0
 13  6  1  0  0  0  0
 14 19  1  6  0  0  0
 14 15  1  0  0  0  0
 15 16  1  0  0  0  0
 17 16  1  0  0  0  0
 18 17  1  0  0  0  0
 19 18  1  0  0  0  0
 20 21  1  0  0  0  0
 20 22  1  0  0  0  0
 23 20  1  0  0  0  0
 25 23  1  0  0  0  0
 25 24  1  0  0  0  0
M  END
>  <MODEL>
5

>  <REMARK>
  Name = ZINC50962522
                            x       y       z     vdW  Elec       q    Type
                         _______ _______ _______ _____ _____    ______ ____

>  <TORSDO>
F 5

>  <minimizedAffinity>
-7.7377048668829849

$$$$
ZINC50962522
 OpenBabel10211214393D

 25 27  0  0  1  0  0  0  0  0999 V2000
   49.6950   54.7120   20.2260 C   0  0  1  0  0  0  0  0  0  0  0  0
   49.8930   53.4160   19.4830 C   0  0  0  0  0  0  0  0  0  0  0  0
   50.5930   52.3800   20.0770 C   0  0  0  0  0  0  0  0  0  0  0  0
   50.7790   51.1880   19.4040 C   0  0  0  0  0  0  0  0  0  0  0  0
   50.2610   51.0290   18.1280 C   0  0  0  0  0  0  0  0  0  0  0  0
   49.5540   52.0740   17.5290 C   0  0  0  0  0  0  0  0  0  0  0  0
   49.1640   51.6250   16.2700 N   0  0  0  0  0  0  0  0  0  0  0  0
   49.6120   50.3660   16.1100 C   0  0  0  0  0  0  0  0  0  0  0  0
   49.4420   49.6800   15.1180 O   0  0  0  0  0  0  0  0  0  0  0  0
   48.6550   52.1320   15.6180 H   0  0  0  0  0  0  0  0  0  0  0  0
   50.2770   49.9780   17.2140 N   0  0  0  0  0  0  0  0  0  0  0  0
   50.6970   49.1140   17.3500 H   0  0  0  0  0  0  0  0  0  0  0  0
   49.3690   53.2640   18.2150 C   0  0  0  0  0  0  0  0  0  0  0  0
   51.0470   55.2250   20.7240 C   0  0  1  0  0  0  0  0  0  0  0  0
   51.5660   56.3050   19.7720 C   0  0  0  0  0  0  0  0  0  0  0  0
   52.8900   56.8560   20.3100 C   0  0  0  0  0  0  0  0  0  0  0  0
   52.6710   57.3890   21.7280 C   0  0  0  0  0  0  0  0  0  0  0  0
   52.1090   56.2670   22.6060 C   0  0  0  0  0  0  0  0  0  0  0  0
   50.8940   55.7790   22.0330 O   0  0  0  0  0  0  0  0  0  0  0  0
   49.0950   55.7060   19.3250 N   0  0  0  0  0  0  0  0  0  0  0  0
   49.7710   56.4280   19.1230 H   0  0  0  0  0  0  0  0  0  0  0  0
   48.8180   55.2560   18.4650 H   0  0  0  0  0  0  0  0  0  0  0  0
   47.9180   56.3030   19.9680 C   0  0  0  0  0  0  0  0  0  0  0  0
   48.5780   58.1630   21.5000 C   0  0  0  0  0  0  0  0  0  0  0  0
   48.1120   57.8160   20.0840 C   0  0  0  0  0  0  0  0  0  0  0  0
  1 20  1  6  0  0  0
  1 14  1  0  0  0  0
  2  3  1  0  0  0  0
  2  1  1  0  0  0  0
  4  3  2  0  0  0  0
  5  4  1  0  0  0  0
  6  5  2  0  0  0  0
  6 13  1  0  0  0  0
  7  6  1  0  0  0  0
  8  7  1  0  0  0  0
  8 11  1  0  0  0  0
  9  8  2  0  0  0  0
 10  7  1  0  0  0  0
 11 12  1  0  0  0  0
 11  5  1  0  0  0  0
 13  2  2  0  0  0  0
 14 15  1  6  0  0  0
 14 19  1  0  0  0  0
 15 16  1  0  0  0  0
 16 17  1  0  0  0  0
 17 18  1  0  0  0  0
 19 18  1  0  0  0  0
 20 23  1  0  0  0  0
 21 20  1  0  0  0  0
 22 20  1  0  0  0  0
 23 25  1  0  0  0  0
 25 24  1  0  0  0  0
M  END
>  <MODEL>
6

>  <REMARK>
  Name = ZINC50962522
                            x       y       z     vdW  Elec       q    Type
                         _______ _______ _______ _____ _____    ______ ____

>  <TORSDO>
F 5

>  <minimizedAffinity>
-7.6188793474892949

$$$$
ZINC50962522
 OpenBabel10211214393D

 25 27  0  0  1  0  0  0  0  0999 V2000
   48.2130   49.5880   17.1290 C   0  0  1  0  0  0  0  0  0  0  0  0
   48.5480   51.0220   17.4520 C   0  0  0  0  0  0  0  0  0  0  0  0
   47.6450   52.0270   17.1490 C   0  0  0  0  0  0  0  0  0  0  0  0
   47.9440   53.3430   17.4410 C   0  0  0  0  0  0  0  0  0  0  0  0
   49.1530   53.6590   18.0420 C   0  0  0  0  0  0  0  0  0  0  0  0
   50.0640   52.6450   18.3480 C   0  0  0  0  0  0  0  0  0  0  0  0
   51.1670   53.2600   18.9340 N   0  0  0  0  0  0  0  0  0  0  0  0
   50.9390   54.5860   18.9830 C   0  0  0  0  0  0  0  0  0  0  0  0
   51.7060   55.4140   19.4380 O   0  0  0  0  0  0  0  0  0  0  0  0
   51.9650   52.8100   19.2530 H   0  0  0  0  0  0  0  0  0  0  0  0
   49.7320   54.8580   18.4530 N   0  0  0  0  0  0  0  0  0  0  0  0
   49.3330   55.7380   18.3700 H   0  0  0  0  0  0  0  0  0  0  0  0
   49.7520   51.3270   18.0550 C   0  0  0  0  0  0  0  0  0  0  0  0
   46.8790   49.2170   17.7800 C   0  0  1  0  0  0  0  0  0  0  0  0
   45.8700   48.8350   16.6950 C   0  0  0  0  0  0  0  0  0  0  0  0
   44.5570   48.4070   17.3580 C   0  0  0  0  0  0  0  0  0  0  0  0
   44.8380   47.2520   18.3240 C   0  0  0  0  0  0  0  0  0  0  0  0
   45.8870   47.6960   19.3470 C   0  0  0  0  0  0  0  0  0  0  0  0
   47.0720   48.1100   18.6630 O   0  0  0  0  0  0  0  0  0  0  0  0
   48.1080   49.4260   15.6720 N   0  0  0  0  0  0  0  0  0  0  0  0
   47.2980   48.8670   15.4530 H   0  0  0  0  0  0  0  0  0  0  0  0
   48.0170   50.3330   15.2390 H   0  0  0  0  0  0  0  0  0  0  0  0
   49.3150   48.7610   15.1650 C   0  0  0  0  0  0  0  0  0  0  0  0
   51.5190   49.8070   14.6230 C   0  0  0  0  0  0  0  0  0  0  0  0
   50.0500   49.7000   14.2060 C   0  0  0  0  0  0  0  0  0  0  0  0
  1 20  1  6  0  0  0
  1  2  1  0  0  0  0
  1 14  1  0  0  0  0
  2 13  2  0  0  0  0
  3  4  2  0  0  0  0
  3  2  1  0  0  0  0
  4  5  1  0  0  0  0
  5  6  2  0  0  0  0
  5 11  1  0  0  0  0
  6  7  1  0  0  0  0
  7  8  1  0  0  0  0
  7 10  1  0  0  0  0
  8  9  2  0  0  0  0
 11  8  1  0  0  0  0
 12 11  1  0  0  0  0
 13  6  1  0  0  0  0
 14 15  1  6  0  0  0
 14 19  1  0  0  0  0
 15 16  1  0  0  0  0
 16 17  1  0  0  0  0
 17 18  1  0  0  0  0
 19 18  1  0  0  0  0
 21 20  1  0  0  0  0
 22 20  1  0  0  0  0
 23 20  1  0  0  0  0
 25 24  1  0  0  0  0
 25 23  1  0  0  0  0
M  END
>  <MODEL>
7

>  <REMARK>
  Name = ZINC50962522
                            x       y       z     vdW  Elec       q    Type
                         _______ _______ _______ _____ _____    ______ ____

>  <TORSDO>
F 5

>  <minimizedAffinity>
-7.0982872570291464

$$$$
ZINC50962522
 OpenBabel10211214393D

 25 27  0  0  1  0  0  0  0  0999 V2000
   49.3260   54.2250   18.0550 C   0  0  1  0  0  0  0  0  0  0  0  0
   48.8080   55.5290   18.6030 C   0  0  0  0  0  0  0  0  0  0  0  0
   48.7380   55.7230   19.9720 C   0  0  0  0  0  0  0  0  0  0  0  0
   48.2650   56.9160   20.4830 C   0  0  0  0  0  0  0  0  0  0  0  0
   47.8600   57.9240   19.6210 C   0  0  0  0  0  0  0  0  0  0  0  0
   47.9310   57.7280   18.2410 C   0  0  0  0  0  0  0  0  0  0  0  0
   47.4630   58.8970   17.6450 N   0  0  0  0  0  0  0  0  0  0  0  0
   47.1230   59.7630   18.6170 C   0  0  0  0  0  0  0  0  0  0  0  0
   46.6770   60.8810   18.4370 O   0  0  0  0  0  0  0  0  0  0  0  0
   47.3940   59.0590   16.6910 H   0  0  0  0  0  0  0  0  0  0  0  0
   47.3510   59.2050   19.8210 N   0  0  0  0  0  0  0  0  0  0  0  0
   47.1890   59.6230   20.6810 H   0  0  0  0  0  0  0  0  0  0  0  0
   48.4120   56.5300   17.7370 C   0  0  0  0  0  0  0  0  0  0  0  0
   50.3740   53.6510   19.0090 C   0  0  1  0  0  0  0  0  0  0  0  0
   50.0530   52.1820   19.2980 C   0  0  0  0  0  0  0  0  0  0  0  0
   51.1400   51.5990   20.2050 C   0  0  0  0  0  0  0  0  0  0  0  0
   52.5030   51.7740   19.5300 C   0  0  0  0  0  0  0  0  0  0  0  0
   52.7300   53.2590   19.2330 C   0  0  0  0  0  0  0  0  0  0  0  0
   51.6690   53.7460   18.4100 O   0  0  0  0  0  0  0  0  0  0  0  0
   48.2130   53.2740   17.9200 N   0  0  0  0  0  0  0  0  0  0  0  0
   48.4800   52.3860   18.3170 H   0  0  0  0  0  0  0  0  0  0  0  0
   47.4060   53.6310   18.4100 H   0  0  0  0  0  0  0  0  0  0  0  0
   47.8870   53.0990   16.5000 C   0  0  0  0  0  0  0  0  0  0  0  0
   47.3280   50.7300   17.0630 C   0  0  0  0  0  0  0  0  0  0  0  0
   48.1010   51.6370   16.1030 C   0  0  0  0  0  0  0  0  0  0  0  0
  1 20  1  1  0  0  0
  1  2  1  0  0  0  0
  1 14  1  0  0  0  0
  2  3  2  0  0  0  0
  3  4  1  0  0  0  0
  5 11  1  0  0  0  0
  5  4  2  0  0  0  0
  6  5  1  0  0  0  0
  7  6  1  0  0  0  0
  7  8  1  0  0  0  0
  8 11  1  0  0  0  0
  9  8  2  0  0  0  0
 10  7  1  0  0  0  0
 11 12  1  0  0  0  0
 13  6  2  0  0  0  0
 13  2  1  0  0  0  0
 14 19  1  6  0  0  0
 14 15  1  0  0  0  0
 15 16  1  0  0  0  0
 17 16  1  0  0  0  0
 18 17  1  0  0  0  0
 19 18  1  0  0  0  0
 20 21  1  0  0  0  0
 20 22  1  0  0  0  0
 23 20  1  0  0  0  0
 25 23  1  0  0  0  0
 25 24  1  0  0  0  0
M  END
>  <MODEL>
8

>  <REMARK>
  Name = ZINC50962522
                            x       y       z     vdW  Elec       q    Type
                         _______ _______ _______ _____ _____    ______ ____

>  <TORSDO>
F 5

>  <minimizedAffinity>
-6.9941207057184309

$$$$
ZINC50962522
 OpenBabel10211214393D

 25 27  0  0  1  0  0  0  0  0999 V2000
   49.3820   50.8620   17.6140 C   0  0  1  0  0  0  0  0  0  0  0  0
   50.0180   51.2720   18.9170 C   0  0  0  0  0  0  0  0  0  0  0  0
   50.5020   50.3060   19.7840 C   0  0  0  0  0  0  0  0  0  0  0  0
   51.0860   50.6720   20.9800 C   0  0  0  0  0  0  0  0  0  0  0  0
   51.1890   52.0140   21.3150 C   0  0  0  0  0  0  0  0  0  0  0  0
   50.7010   52.9880   20.4410 C   0  0  0  0  0  0  0  0  0  0  0  0
   50.9430   54.2220   21.0400 N   0  0  0  0  0  0  0  0  0  0  0  0
   51.5490   54.0090   22.2230 C   0  0  0  0  0  0  0  0  0  0  0  0
   51.8980   54.8790   23.0000 O   0  0  0  0  0  0  0  0  0  0  0  0
   50.7130   55.0880   20.6690 H   0  0  0  0  0  0  0  0  0  0  0  0
   51.7120   52.6870   22.4170 N   0  0  0  0  0  0  0  0  0  0  0  0
   52.1220   52.2730   23.1920 H   0  0  0  0  0  0  0  0  0  0  0  0
   50.1210   52.6100   19.2410 C   0  0  0  0  0  0  0  0  0  0  0  0
   50.4180   50.1450   16.7450 C   0  0  1  0  0  0  0  0  0  0  0  0
   49.9390   50.1240   15.2920 C   0  0  0  0  0  0  0  0  0  0  0  0
   51.0080   49.4590   14.4200 C   0  0  0  0  0  0  0  0  0  0  0  0
   52.3300   50.2140   14.5860 C   0  0  0  0  0  0  0  0  0  0  0  0
   52.7170   50.2300   16.0670 C   0  0  0  0  0  0  0  0  0  0  0  0
   51.6670   50.8340   16.8250 O   0  0  0  0  0  0  0  0  0  0  0  0
   48.2560   49.9560   17.8820 N   0  0  0  0  0  0  0  0  0  0  0  0
   48.4410   49.0570   17.4630 H   0  0  0  0  0  0  0  0  0  0  0  0
   48.1450   49.8440   18.8790 H   0  0  0  0  0  0  0  0  0  0  0  0
   47.0270   50.5210   17.3120 C   0  0  0  0  0  0  0  0  0  0  0  0
   46.2380   48.3980   18.3690 C   0  0  0  0  0  0  0  0  0  0  0  0
   45.9310   49.4540   17.3050 C   0  0  0  0  0  0  0  0  0  0  0  0
  1 20  1  1  0  0  0
  1  2  1  0  0  0  0
  2 13  2  0  0  0  0
  2  3  1  0  0  0  0
  3  4  2  0  0  0  0
  4  5  1  0  0  0  0
  5 11  1  0  0  0  0
  6  7  1  0  0  0  0
  6  5  2  0  0  0  0
  7  8  1  0  0  0  0
  8 11  1  0  0  0  0
  8  9  2  0  0  0  0
 10  7  1  0  0  0  0
 11 12  1  0  0  0  0
 13  6  1  0  0  0  0
 14 15  1  6  0  0  0
 14 19  1  0  0  0  0
 14  1  1  0  0  0  0
 16 17  1  0  0  0  0
 16 15  1  0  0  0  0
 17 18  1  0  0  0  0
 18 19  1  0  0  0  0
 20 22  1  0  0  0  0
 21 20  1  0  0  0  0
 23 20  1  0  0  0  0
 25 23  1  0  0  0  0
 25 24  1  0  0  0  0
M  END
>  <MODEL>
9

>  <REMARK>
  Name = ZINC50962522
                            x       y       z     vdW  Elec       q    Type
                         _______ _______ _______ _____ _____    ______ ____

>  <TORSDO>
F 5

>  <minimizedAffinity>
-6.8164136455422719

$$$$
ZINC36933178
 OpenBabel10211214403D

 23 24  0  0  1  0  0  0  0  0999 V2000
   51.0400   53.7690   20.7520 C   0  0  1  0  0  0  0  0  0  0  0  0
   51.5820   53.7770   22.1830 C   0  0  0  0  0  0  0  0  0  0  0  0
   50.8140   52.3470   20.3070 C   0  0  0  0  0  0  0  0  0  0  0  0
   51.0960   51.3010   21.1670 C   0  0  0  0  0  0  0  0  0  0  0  0
   50.8900   49.9970   20.7610 C   0  0  0  0  0  0  0  0  0  0  0  0
   50.4000   49.7340   19.4900 C   0  0  0  0  0  0  0  0  0  0  0  0
   50.1180   50.7800   18.6250 C   0  0  0  0  0  0  0  0  0  0  0  0
   50.3190   52.0890   19.0380 C   0  0  0  0  0  0  0  0  0  0  0  0
   50.1980   48.4500   19.0910 O   0  0  0  0  0  0  0  0  0  0  0  0
   50.9890   47.8950   19.1360 H   0  0  0  0  0  0  0  0  0  0  0  0
   50.0370   53.1170   18.1950 O   0  0  0  0  0  0  0  0  0  0  0  0
   49.7320   52.8370   17.3210 H   0  0  0  0  0  0  0  0  0  0  0  0
   49.7690   54.5040   20.7070 N   0  0  0  0  0  0  0  0  0  0  0  0
   49.1640   54.2290   21.4670 H   0  0  0  0  0  0  0  0  0  0  0  0
   48.6720   56.6830   20.4870 C   0  0  0  0  0  0  0  0  0  0  0  0
   49.9980   55.9550   20.7160 C   0  0  2  0  0  0  0  0  0  0  0  0
   50.9800   56.3230   19.6030 C   0  0  0  0  0  0  0  0  0  0  0  0
   51.9740   57.2750   20.1210 N   0  0  0  0  0  0  0  0  0  0  0  0
   53.3100   56.6640   20.1730 C   0  0  0  0  0  0  0  0  0  0  0  0
   54.3220   57.7050   20.6600 C   0  0  0  0  0  0  0  0  0  0  0  0
   53.9060   58.2060   21.9330 O   0  0  0  0  0  0  0  0  0  0  0  0
   52.6090   58.8080   21.9200 C   0  0  0  0  0  0  0  0  0  0  0  0
   51.5800   57.7790   21.4440 C   0  0  0  0  0  0  0  0  0  0  0  0
  1  3  1  1  0  0  0
  1  2  1  0  0  0  0
  3  4  2  0  0  0  0
  5  4  1  0  0  0  0
  6  5  2  0  0  0  0
  7  8  2  0  0  0  0
  7  6  1  0  0  0  0
  8  3  1  0  0  0  0
  9 10  1  0  0  0  0
  9  6  1  0  0  0  0
 11  8  1  0  0  0  0
 12 11  1  0  0  0  0
 13 16  1  0  0  0  0
 13  1  1  0  0  0  0
 13 14  1  0  0  0  0
 15 16  1  0  0  0  0
 16 17  1  6  0  0  0
 17 18  1  0  0  0  0
 18 19  1  0  0  0  0
 18 23  1  0  0  0  0
 19 20  1  0  0  0  0
 20 21  1  0  0  0  0
 22 21  1  0  0  0  0
 23 22  1  0  0  0  0
M  END
>  <MODEL>
1

>  <REMARK>
  Name = ZINC36933178
                            x       y       z     vdW  Elec       q    Type
                         _______ _______ _______ _____ _____    ______ ____

>  <TORSDO>
F 7

>  <minimizedAffinity>
-6.9121799297923632

$$$$
ZINC36933178
 OpenBabel10211214403D

 23 24  0  0  1  0  0  0  0  0999 V2000
   49.5880   48.7850   18.3940 C   0  0  1  0  0  0  0  0  0  0  0  0
   49.4130   49.0640   19.8880 C   0  0  0  0  0  0  0  0  0  0  0  0
   48.2360   48.6310   17.7490 C   0  0  0  0  0  0  0  0  0  0  0  0
   47.0890   48.8480   18.4890 C   0  0  0  0  0  0  0  0  0  0  0  0
   45.8470   48.7070   17.9000 C   0  0  0  0  0  0  0  0  0  0  0  0
   45.7490   48.3470   16.5630 C   0  0  0  0  0  0  0  0  0  0  0  0
   46.8980   48.1280   15.8190 C   0  0  0  0  0  0  0  0  0  0  0  0
   48.1430   48.2770   16.4110 C   0  0  0  0  0  0  0  0  0  0  0  0
   44.5270   48.2080   15.9840 O   0  0  0  0  0  0  0  0  0  0  0  0
   43.8830   48.8750   16.2600 H   0  0  0  0  0  0  0  0  0  0  0  0
   49.2710   48.0690   15.6820 O   0  0  0  0  0  0  0  0  0  0  0  0
   49.1750   48.2740   14.7420 H   0  0  0  0  0  0  0  0  0  0  0  0
   50.3050   49.9050   17.7690 N   0  0  0  0  0  0  0  0  0  0  0  0
   50.0170   50.0290   16.8090 H   0  0  0  0  0  0  0  0  0  0  0  0
   49.2600   52.1190   17.7330 C   0  0  0  0  0  0  0  0  0  0  0  0
   50.1210   51.1440   18.5370 C   0  0  2  0  0  0  0  0  0  0  0  0
   51.4850   51.7780   18.8160 C   0  0  0  0  0  0  0  0  0  0  0  0
   51.3280   52.8680   19.7900 N   0  0  0  0  0  0  0  0  0  0  0  0
   52.0550   54.0690   19.3570 C   0  0  0  0  0  0  0  0  0  0  0  0
   51.8160   55.1950   20.3670 C   0  0  0  0  0  0  0  0  0  0  0  0
   52.2210   54.7560   21.6670 O   0  0  0  0  0  0  0  0  0  0  0  0
   51.5330   53.5880   22.1200 C   0  0  0  0  0  0  0  0  0  0  0  0
   51.7680   52.4460   21.1280 C   0  0  0  0  0  0  0  0  0  0  0  0
  1  3  1  1  0  0  0
  1  2  1  0  0  0  0
  3  4  2  0  0  0  0
  5  4  1  0  0  0  0
  6  5  2  0  0  0  0
  7  8  2  0  0  0  0
  7  6  1  0  0  0  0
  8  3  1  0  0  0  0
  9 10  1  0  0  0  0
  9  6  1  0  0  0  0
 11  8  1  0  0  0  0
 12 11  1  0  0  0  0
 13  1  1  0  0  0  0
 13 16  1  0  0  0  0
 14 13  1  0  0  0  0
 16 15  1  6  0  0  0
 16 17  1  0  0  0  0
 17 18  1  0  0  0  0
 18 23  1  0  0  0  0
 19 18  1  0  0  0  0
 19 20  1  0  0  0  0
 20 21  1  0  0  0  0
 21 22  1  0  0  0  0
 23 22  1  0  0  0  0
M  END
>  <MODEL>
2

>  <REMARK>
  Name = ZINC36933178
                            x       y       z     vdW  Elec       q    Type
                         _______ _______ _______ _____ _____    ______ ____

>  <TORSDO>
F 7

>  <minimizedAffinity>
-6.8972099205851647

$$$$
ZINC36933178
 OpenBabel10211214403D

 23 24  0  0  1  0  0  0  0  0999 V2000
   49.9780   50.5330   16.8640 C   0  0  1  0  0  0  0  0  0  0  0  0
   48.9040   51.6230   16.8320 C   0  0  0  0  0  0  0  0  0  0  0  0
   50.7380   50.6120   18.1620 C   0  0  0  0  0  0  0  0  0  0  0  0
   50.1150   50.2700   19.3480 C   0  0  0  0  0  0  0  0  0  0  0  0
   50.8090   50.3420   20.5410 C   0  0  0  0  0  0  0  0  0  0  0  0
   52.1330   50.7590   20.5500 C   0  0  0  0  0  0  0  0  0  0  0  0
   52.7590   51.1040   19.3630 C   0  0  0  0  0  0  0  0  0  0  0  0
   52.0620   51.0240   18.1660 C   0  0  0  0  0  0  0  0  0  0  0  0
   52.8150   50.8300   21.7240 O   0  0  0  0  0  0  0  0  0  0  0  0
   53.5270   50.1790   21.8050 H   0  0  0  0  0  0  0  0  0  0  0  0
   52.6750   51.3560   16.9990 O   0  0  0  0  0  0  0  0  0  0  0  0
   52.5860   52.2890   16.7600 H   0  0  0  0  0  0  0  0  0  0  0  0
   49.3400   49.2150   16.7490 N   0  0  0  0  0  0  0  0  0  0  0  0
   48.4270   49.2150   17.1790 H   0  0  0  0  0  0  0  0  0  0  0  0
   50.3980   49.4320   14.5510 C   0  0  0  0  0  0  0  0  0  0  0  0
   49.2600   48.7890   15.3450 C   0  0  2  0  0  0  0  0  0  0  0  0
   47.9170   49.2240   14.7550 C   0  0  0  0  0  0  0  0  0  0  0  0
   46.8420   48.4000   15.3250 N   0  0  0  0  0  0  0  0  0  0  0  0
   45.9710   47.8670   14.2680 C   0  0  0  0  0  0  0  0  0  0  0  0
   44.9030   46.9690   14.8990 C   0  0  0  0  0  0  0  0  0  0  0  0
   44.1740   47.7180   15.8750 O   0  0  0  0  0  0  0  0  0  0  0  0
   44.9910   48.2520   16.9200 C   0  0  0  0  0  0  0  0  0  0  0  0
   46.0600   49.1620   16.3090 C   0  0  0  0  0  0  0  0  0  0  0  0
  1 13  1  1  0  0  0
  1  3  1  0  0  0  0
  2  1  1  0  0  0  0
  3  8  2  0  0  0  0
  3  4  1  0  0  0  0
  4  5  2  0  0  0  0
  5  6  1  0  0  0  0
  6  9  1  0  0  0  0
  7  6  2  0  0  0  0
  8  7  1  0  0  0  0
  9 10  1  0  0  0  0
 11  8  1  0  0  0  0
 12 11  1  0  0  0  0
 13 14  1  0  0  0  0
 16 15  1  1  0  0  0
 16 13  1  0  0  0  0
 17 18  1  0  0  0  0
 17 16  1  0  0  0  0
 18 23  1  0  0  0  0
 19 20  1  0  0  0  0
 19 18  1  0  0  0  0
 20 21  1  0  0  0  0
 21 22  1  0  0  0  0
 23 22  1  0  0  0  0
M  END
>  <MODEL>
3

>  <REMARK>
  Name = ZINC36933178
                            x       y       z     vdW  Elec       q    Type
                         _______ _______ _______ _____ _____    ______ ____

>  <TORSDO>
F 7

>  <minimizedAffinity>
-6.8777238805562169

$$$$
ZINC36933178
 OpenBabel10211214403D

 23 24  0  0  1  0  0  0  0  0999 V2000
   50.8580   54.6440   19.1020 C   0  0  1  0  0  0  0  0  0  0  0  0
   49.6100   54.0370   18.4580 C   0  0  0  0  0  0  0  0  0  0  0  0
   50.4490   55.7230   20.0720 C   0  0  0  0  0  0  0  0  0  0  0  0
   49.1200   56.0860   20.1820 C   0  0  0  0  0  0  0  0  0  0  0  0
   48.7430   57.0750   21.0700 C   0  0  0  0  0  0  0  0  0  0  0  0
   49.6990   57.7050   21.8540 C   0  0  0  0  0  0  0  0  0  0  0  0
   51.0320   57.3440   21.7460 C   0  0  0  0  0  0  0  0  0  0  0  0
   51.4070   56.3460   20.8580 C   0  0  0  0  0  0  0  0  0  0  0  0
   49.3270   58.6790   22.7280 O   0  0  0  0  0  0  0  0  0  0  0  0
   49.7650   59.5290   22.5790 H   0  0  0  0  0  0  0  0  0  0  0  0
   52.7140   55.9850   20.7540 O   0  0  0  0  0  0  0  0  0  0  0  0
   53.1660   55.8960   21.6050 H   0  0  0  0  0  0  0  0  0  0  0  0
   51.5970   53.5960   19.8180 N   0  0  0  0  0  0  0  0  0  0  0  0
   52.1780   53.9930   20.5420 H   0  0  0  0  0  0  0  0  0  0  0  0
   50.7120   52.6550   21.8980 C   0  0  0  0  0  0  0  0  0  0  0  0
   50.6820   52.5890   20.3710 C   0  0  2  0  0  0  0  0  0  0  0  0
   51.1190   51.1960   19.9130 C   0  0  0  0  0  0  0  0  0  0  0  0
   50.1050   50.6380   19.0070 N   0  0  0  0  0  0  0  0  0  0  0  0
   49.7860   49.2490   19.3670 C   0  0  0  0  0  0  0  0  0  0  0  0
   48.6860   48.7270   18.4380 C   0  0  0  0  0  0  0  0  0  0  0  0
   49.1190   48.8490   17.0800 O   0  0  0  0  0  0  0  0  0  0  0  0
   49.4380   50.1890   16.6950 C   0  0  0  0  0  0  0  0  0  0  0  0
   50.5450   50.7260   17.6070 C   0  0  0  0  0  0  0  0  0  0  0  0
  1  2  1  1  0  0  0
  1 13  1  0  0  0  0
  1  3  1  0  0  0  0
  3  4  2  0  0  0  0
  3  8  1  0  0  0  0
  4  5  1  0  0  0  0
  5  6  2  0  0  0  0
  6  9  1  0  0  0  0
  7  6  1  0  0  0  0
  8  7  2  0  0  0  0
 10  9  1  0  0  0  0
 11  8  1  0  0  0  0
 11 12  1  0  0  0  0
 13 14  1  0  0  0  0
 16 13  1  1  0  0  0
 16 15  1  0  0  0  0
 17 16  1  0  0  0  0
 18 19  1  0  0  0  0
 18 17  1  0  0  0  0
 20 19  1  0  0  0  0
 21 20  1  0  0  0  0
 22 21  1  0  0  0  0
 22 23  1  0  0  0  0
 23 18  1  0  0  0  0
M  END
>  <MODEL>
4

>  <REMARK>
  Name = ZINC36933178
                            x       y       z     vdW  Elec       q    Type
                         _______ _______ _______ _____ _____    ______ ____

>  <TORSDO>
F 7

>  <minimizedAffinity>
-6.7844437809409772

$$$$
ZINC36933178
 OpenBabel10211214403D

 23 24  0  0  1  0  0  0  0  0999 V2000
   51.1170   52.8800   20.6620 C   0  0  1  0  0  0  0  0  0  0  0  0
   50.6770   52.0890   21.8960 C   0  0  0  0  0  0  0  0  0  0  0  0
   51.5510   54.2610   21.0780 C   0  0  0  0  0  0  0  0  0  0  0  0
   51.4730   54.6400   22.4050 C   0  0  0  0  0  0  0  0  0  0  0  0
   51.8700   55.9060   22.7890 C   0  0  0  0  0  0  0  0  0  0  0  0
   52.3480   56.8010   21.8420 C   0  0  0  0  0  0  0  0  0  0  0  0
   52.4260   56.4250   20.5100 C   0  0  0  0  0  0  0  0  0  0  0  0
   52.0330   55.1510   20.1290 C   0  0  0  0  0  0  0  0  0  0  0  0
   52.7380   58.0480   22.2200 O   0  0  0  0  0  0  0  0  0  0  0  0
   52.1730   58.7560   21.8810 H   0  0  0  0  0  0  0  0  0  0  0  0
   52.1140   54.7770   18.8240 O   0  0  0  0  0  0  0  0  0  0  0  0
   51.4530   54.1220   18.5610 H   0  0  0  0  0  0  0  0  0  0  0  0
   52.2390   52.1880   20.0130 N   0  0  0  0  0  0  0  0  0  0  0  0
   53.0110   52.0710   20.6530 H   0  0  0  0  0  0  0  0  0  0  0  0
   52.9150   49.8580   19.6820 C   0  0  0  0  0  0  0  0  0  0  0  0
   51.8130   50.8950   19.4600 C   0  0  2  0  0  0  0  0  0  0  0  0
   51.5470   51.0440   17.9610 C   0  0  0  0  0  0  0  0  0  0  0  0
   50.2550   50.4270   17.6300 N   0  0  0  0  0  0  0  0  0  0  0  0
   49.3840   51.3800   16.9260 C   0  0  0  0  0  0  0  0  0  0  0  0
   48.0750   50.6800   16.5470 C   0  0  0  0  0  0  0  0  0  0  0  0
   47.4620   50.1560   17.7290 O   0  0  0  0  0  0  0  0  0  0  0  0
   48.2830   49.2250   18.4390 C   0  0  0  0  0  0  0  0  0  0  0  0
   49.5940   49.9090   18.8360 C   0  0  0  0  0  0  0  0  0  0  0  0
  1 13  1  1  0  0  0
  1  3  1  0  0  0  0
  1  2  1  0  0  0  0
  3  4  2  0  0  0  0
  4  5  1  0  0  0  0
  6  9  1  0  0  0  0
  6  5  2  0  0  0  0
  7  6  1  0  0  0  0
  8  7  2  0  0  0  0
  8  3  1  0  0  0  0
 10  9  1  0  0  0  0
 11  8  1  0  0  0  0
 12 11  1  0  0  0  0
 13 14  1  0  0  0  0
 16 17  1  6  0  0  0
 16 15  1  0  0  0  0
 16 13  1  0  0  0  0
 18 17  1  0  0  0  0
 18 23  1  0  0  0  0
 19 18  1  0  0  0  0
 20 19  1  0  0  0  0
 20 21  1  0  0  0  0
 21 22  1  0  0  0  0
 22 23  1  0  0  0  0
M  END
>  <MODEL>
5

>  <REMARK>
  Name = ZINC36933178
                            x       y       z     vdW  Elec       q    Type
                         _______ _______ _______ _____ _____    ______ ____

>  <TORSDO>
F 7

>  <minimizedAffinity>
-6.7819872410297508

$$$$
ZINC36933178
 OpenBabel10211214403D

 23 24  0  0  1  0  0  0  0  0999 V2000
   50.4200   50.2720   18.0570 C   0  0  1  0  0  0  0  0  0  0  0  0
   50.3700   50.3030   19.5860 C   0  0  0  0  0  0  0  0  0  0  0  0
   49.0760   49.8600   17.5170 C   0  0  0  0  0  0  0  0  0  0  0  0
   48.0620   49.5040   18.3870 C   0  0  0  0  0  0  0  0  0  0  0  0
   46.8270   49.1250   17.8940 C   0  0  0  0  0  0  0  0  0  0  0  0
   46.6040   49.1010   16.5250 C   0  0  0  0  0  0  0  0  0  0  0  0
   47.6190   49.4560   15.6500 C   0  0  0  0  0  0  0  0  0  0  0  0
   48.8550   49.8420   16.1480 C   0  0  0  0  0  0  0  0  0  0  0  0
   45.3900   48.7270   16.0410 O   0  0  0  0  0  0  0  0  0  0  0  0
   44.7200   48.5840   16.7250 H   0  0  0  0  0  0  0  0  0  0  0  0
   49.8500   50.1970   15.2930 O   0  0  0  0  0  0  0  0  0  0  0  0
   50.3500   49.4490   14.9390 H   0  0  0  0  0  0  0  0  0  0  0  0
   50.7620   51.6080   17.5520 N   0  0  0  0  0  0  0  0  0  0  0  0
   50.3150   51.7860   16.6650 H   0  0  0  0  0  0  0  0  0  0  0  0
   49.2290   53.4600   18.0160 C   0  0  0  0  0  0  0  0  0  0  0  0
   50.4170   52.6470   18.5320 C   0  0  2  0  0  0  0  0  0  0  0  0
   51.6170   53.5720   18.7390 C   0  0  0  0  0  0  0  0  0  0  0  0
   51.4410   54.3320   19.9860 N   0  0  0  0  0  0  0  0  0  0  0  0
   52.2270   55.5740   19.9600 C   0  0  0  0  0  0  0  0  0  0  0  0
   51.9680   56.3600   21.2480 C   0  0  0  0  0  0  0  0  0  0  0  0
   52.2890   55.5390   22.3750 O   0  0  0  0  0  0  0  0  0  0  0  0
   51.5430   54.3210   22.4310 C   0  0  0  0  0  0  0  0  0  0  0  0
   51.7960   53.5140   21.1540 C   0  0  0  0  0  0  0  0  0  0  0  0
  1  3  1  1  0  0  0
  1  2  1  0  0  0  0
  3  4  2  0  0  0  0
  5  4  1  0  0  0  0
  6  5  2  0  0  0  0
  7  8  2  0  0  0  0
  7  6  1  0  0  0  0
  8  3  1  0  0  0  0
  9  6  1  0  0  0  0
  9 10  1  0  0  0  0
 11  8  1  0  0  0  0
 12 11  1  0  0  0  0
 13  1  1  0  0  0  0
 14 13  1  0  0  0  0
 15 16  1  0  0  0  0
 16 13  1  6  0  0  0
 16 17  1  0  0  0  0
 17 18  1  0  0  0  0
 18 23  1  0  0  0  0
 19 18  1  0  0  0  0
 19 20  1  0  0  0  0
 20 21  1  0  0  0  0
 21 22  1  0  0  0  0
 23 22  1  0  0  0  0
M  END
>  <MODEL>
6

>  <REMARK>
  Name = ZINC36933178
                            x       y       z     vdW  Elec       q    Type
                         _______ _______ _______ _____ _____    ______ ____

>  <TORSDO>
F 7

>  <minimizedAffinity>
-6.7407472070560193

$$$$
ZINC36933178
 OpenBabel10211214403D

 23 24  0  0  1  0  0  0  0  0999 V2000
   47.9170   50.4080   16.0010 C   0  0  1  0  0  0  0  0  0  0  0  0
   48.3180   49.8810   14.6220 C   0  0  0  0  0  0  0  0  0  0  0  0
   47.0700   49.3800   16.7060 C   0  0  0  0  0  0  0  0  0  0  0  0
   45.7480   49.6590   17.0000 C   0  0  0  0  0  0  0  0  0  0  0  0
   44.9690   48.7190   17.6470 C   0  0  0  0  0  0  0  0  0  0  0  0
   45.5130   47.4920   18.0020 C   0  0  0  0  0  0  0  0  0  0  0  0
   46.8380   47.2100   17.7090 C   0  0  0  0  0  0  0  0  0  0  0  0
   47.6160   48.1540   17.0540 C   0  0  0  0  0  0  0  0  0  0  0  0
   44.7460   46.5670   18.6380 O   0  0  0  0  0  0  0  0  0  0  0  0
   45.1310   45.6790   18.6520 H   0  0  0  0  0  0  0  0  0  0  0  0
   48.9140   47.8780   16.7590 O   0  0  0  0  0  0  0  0  0  0  0  0
   49.0760   47.7030   15.8220 H   0  0  0  0  0  0  0  0  0  0  0  0
   49.1250   50.6730   16.7930 N   0  0  0  0  0  0  0  0  0  0  0  0
   49.9330   50.7800   16.1970 H   0  0  0  0  0  0  0  0  0  0  0  0
   48.1530   52.9180   16.8940 C   0  0  0  0  0  0  0  0  0  0  0  0
   48.9450   51.8520   17.6520 C   0  0  2  0  0  0  0  0  0  0  0  0
   50.3140   52.4140   18.0410 C   0  0  0  0  0  0  0  0  0  0  0  0
   50.9260   51.5490   19.0600 N   0  0  0  0  0  0  0  0  0  0  0  0
   51.2000   52.3010   20.2930 C   0  0  0  0  0  0  0  0  0  0  0  0
   51.7810   51.3510   21.3440 C   0  0  0  0  0  0  0  0  0  0  0  0
   52.9550   50.7270   20.8180 O   0  0  0  0  0  0  0  0  0  0  0  0
   52.7250   49.9860   19.6170 C   0  0  0  0  0  0  0  0  0  0  0  0
   52.1530   50.9210   18.5490 C   0  0  0  0  0  0  0  0  0  0  0  0
  1  2  1  1  0  0  0
  1  3  1  0  0  0  0
  1 13  1  0  0  0  0
  3  4  2  0  0  0  0
  3  8  1  0  0  0  0
  4  5  1  0  0  0  0
  5  6  2  0  0  0  0
  6  9  1  0  0  0  0
  7  6  1  0  0  0  0
  8  7  2  0  0  0  0
  9 10  1  0  0  0  0
 11  8  1  0  0  0  0
 12 11  1  0  0  0  0
 14 13  1  0  0  0  0
 15 16  1  0  0  0  0
 16 13  1  6  0  0  0
 16 17  1  0  0  0  0
 17 18  1  0  0  0  0
 18 19  1  0  0  0  0
 19 20  1  0  0  0  0
 21 20  1  0  0  0  0
 22 21  1  0  0  0  0
 23 18  1  0  0  0  0
 23 22  1  0  0  0  0
M  END
>  <MODEL>
7

>  <REMARK>
  Name = ZINC36933178
                            x       y       z     vdW  Elec       q    Type
                         _______ _______ _______ _____ _____    ______ ____

>  <TORSDO>
F 7

>  <minimizedAffinity>
-6.7315502379230345

$$$$
ZINC36933178
 OpenBabel10211214403D

 23 24  0  0  1  0  0  0  0  0999 V2000
   49.3600   55.5660   18.4990 C   0  0  1  0  0  0  0  0  0  0  0  0
   48.3410   56.7010   18.3680 C   0  0  0  0  0  0  0  0  0  0  0  0
   50.2600   55.8320   19.6780 C   0  0  0  0  0  0  0  0  0  0  0  0
   49.7870   56.5510   20.7600 C   0  0  0  0  0  0  0  0  0  0  0  0
   50.6100   56.7970   21.8420 C   0  0  0  0  0  0  0  0  0  0  0  0
   51.9140   56.3210   21.8450 C   0  0  0  0  0  0  0  0  0  0  0  0
   52.3910   55.6000   20.7610 C   0  0  0  0  0  0  0  0  0  0  0  0
   51.5600   55.3490   19.6790 C   0  0  0  0  0  0  0  0  0  0  0  0
   52.7240   56.5620   22.9090 O   0  0  0  0  0  0  0  0  0  0  0  0
   53.6640   56.4230   22.7280 H   0  0  0  0  0  0  0  0  0  0  0  0
   52.0230   54.6370   18.6180 O   0  0  0  0  0  0  0  0  0  0  0  0
   52.2370   55.1770   17.8450 H   0  0  0  0  0  0  0  0  0  0  0  0
   48.6510   54.2950   18.7000 N   0  0  0  0  0  0  0  0  0  0  0  0
   47.6520   54.4250   18.6500 H   0  0  0  0  0  0  0  0  0  0  0  0
   48.0570   53.1410   16.6240 C   0  0  0  0  0  0  0  0  0  0  0  0
   49.1000   53.2830   17.7330 C   0  0  2  0  0  0  0  0  0  0  0  0
   49.2750   51.9400   18.4440 C   0  0  0  0  0  0  0  0  0  0  0  0
   50.6440   51.8380   18.9680 N   0  0  0  0  0  0  0  0  0  0  0  0
   51.2930   50.6020   18.5080 C   0  0  0  0  0  0  0  0  0  0  0  0
   52.7340   50.5650   19.0260 C   0  0  0  0  0  0  0  0  0  0  0  0
   52.7240   50.6730   20.4520 O   0  0  0  0  0  0  0  0  0  0  0  0
   52.1000   51.8650   20.9360 C   0  0  0  0  0  0  0  0  0  0  0  0
   50.6530   51.9160   20.4360 C   0  0  0  0  0  0  0  0  0  0  0  0
  1  2  1  1  0  0  0
  1 13  1  0  0  0  0
  1  3  1  0  0  0  0
  3  8  2  0  0  0  0
  3  4  1  0  0  0  0
  4  5  2  0  0  0  0
  5  6  1  0  0  0  0
  6  9  1  0  0  0  0
  7  6  2  0  0  0  0
  8  7  1  0  0  0  0
 10  9  1  0  0  0  0
 11  8  1  0  0  0  0
 12 11  1  0  0  0  0
 14 13  1  0  0  0  0
 16 15  1  1  0  0  0
 16 17  1  0  0  0  0
 16 13  1  0  0  0  0
 17 18  1  0  0  0  0
 18 23  1  0  0  0  0
 19 18  1  0  0  0  0
 19 20  1  0  0  0  0
 20 21  1  0  0  0  0
 21 22  1  0  0  0  0
 23 22  1  0  0  0  0
M  END
>  <MODEL>
8

>  <REMARK>
  Name = ZINC36933178
                            x       y       z     vdW  Elec       q    Type
                         _______ _______ _______ _____ _____    ______ ____

>  <TORSDO>
F 7

>  <minimizedAffinity>
-6.7104296427897827

$$$$
ZINC36933178
 OpenBabel10211214403D

 23 24  0  0  1  0  0  0  0  0999 V2000
   49.9200   51.3900   17.2460 C   0  0  1  0  0  0  0  0  0  0  0  0
   48.4010   51.5750   17.2630 C   0  0  0  0  0  0  0  0  0  0  0  0
   50.5430   52.2390   18.3230 C   0  0  0  0  0  0  0  0  0  0  0  0
   49.7390   52.9280   19.2110 C   0  0  0  0  0  0  0  0  0  0  0  0
   50.3070   53.7080   20.1990 C   0  0  0  0  0  0  0  0  0  0  0  0
   51.6880   53.8020   20.3010 C   0  0  0  0  0  0  0  0  0  0  0  0
   52.4980   53.1140   19.4110 C   0  0  0  0  0  0  0  0  0  0  0  0
   51.9240   52.3260   18.4240 C   0  0  0  0  0  0  0  0  0  0  0  0
   52.2480   54.5700   21.2740 O   0  0  0  0  0  0  0  0  0  0  0  0
   51.6440   55.2220   21.6570 H   0  0  0  0  0  0  0  0  0  0  0  0
   52.7150   51.6450   17.5540 O   0  0  0  0  0  0  0  0  0  0  0  0
   53.6430   51.5980   17.8200 H   0  0  0  0  0  0  0  0  0  0  0  0
   50.2420   49.9770   17.4880 N   0  0  0  0  0  0  0  0  0  0  0  0
   51.1700   49.8780   17.8720 H   0  0  0  0  0  0  0  0  0  0  0  0
   49.8520   49.1030   19.7420 C   0  0  0  0  0  0  0  0  0  0  0  0
   49.2410   49.3500   18.3620 C   0  0  2  0  0  0  0  0  0  0  0  0
   48.7970   48.0180   17.7550 C   0  0  0  0  0  0  0  0  0  0  0  0
   47.4380   48.1550   17.2130 N   0  0  0  0  0  0  0  0  0  0  0  0
   46.4980   48.5900   18.2560 C   0  0  0  0  0  0  0  0  0  0  0  0
   45.1100   48.7780   17.6370 C   0  0  0  0  0  0  0  0  0  0  0  0
   44.7020   47.5560   17.0160 O   0  0  0  0  0  0  0  0  0  0  0  0
   45.5950   47.1030   15.9950 C   0  0  0  0  0  0  0  0  0  0  0  0
   46.9880   46.8990   16.5970 C   0  0  0  0  0  0  0  0  0  0  0  0
  1  2  1  1  0  0  0
  1 13  1  0  0  0  0
  1  3  1  0  0  0  0
  3  8  2  0  0  0  0
  3  4  1  0  0  0  0
  4  5  2  0  0  0  0
  5  6  1  0  0  0  0
  6  9  1  0  0  0  0
  7  6  2  0  0  0  0
  8  7  1  0  0  0  0
  9 10  1  0  0  0  0
 11 12  1  0  0  0  0
 11  8  1  0  0  0  0
 13 14  1  0  0  0  0
 16 13  1  6  0  0  0
 16 15  1  0  0  0  0
 17 16  1  0  0  0  0
 18 17  1  0  0  0  0
 18 19  1  0  0  0  0
 20 19  1  0  0  0  0
 21 20  1  0  0  0  0
 22 23  1  0  0  0  0
 22 21  1  0  0  0  0
 23 18  1  0  0  0  0
M  END
>  <MODEL>
9

>  <REMARK>
  Name = ZINC36933178
                            x       y       z     vdW  Elec       q    Type
                         _______ _______ _______ _____ _____    ______ ____

>  <TORSDO>
F 7

>  <minimizedAffinity>
-6.6937957716747407

$$$$
ZINC61768890
 OpenBabel10211214413D

 24 25  0  0  0  0  0  0  0  0999 V2000
   49.9130   50.8930   16.7490 N   0  0  0  0  0  0  0  0  0  0  0  0
   50.3360   51.4270   16.0580 H   0  0  0  0  0  0  0  0  0  0  0  0
   50.8900   52.4210   19.9620 N   0  0  0  0  0  0  0  0  0  0  0  0
   51.1180   51.2690   20.6540 C   0  0  0  0  0  0  0  0  0  0  0  0
   50.9500   50.0640   20.0690 C   0  0  0  0  0  0  0  0  0  0  0  0
   50.5590   49.9500   18.7990 N   0  0  0  0  0  0  0  0  0  0  0  0
   50.3200   51.0200   18.0700 C   0  0  0  0  0  0  0  0  0  0  0  0
   50.4870   52.3450   18.6740 C   0  0  0  0  0  0  0  0  0  0  0  0
   50.2700   53.3580   18.0280 O   0  0  0  0  0  0  0  0  0  0  0  0
   51.4550   53.5140   22.0750 C   0  0  0  0  0  0  0  0  0  0  0  0
   51.0750   53.7230   20.6080 C   0  0  0  0  0  0  0  0  0  0  0  0
   52.1910   54.4910   19.8970 C   0  0  0  0  0  0  0  0  0  0  0  0
   49.7730   54.5230   20.5260 C   0  0  0  0  0  0  0  0  0  0  0  0
   48.8450   49.9540   16.3980 C   0  0  0  0  0  0  0  0  0  0  0  0
   47.4920   50.5520   16.7890 C   0  0  0  0  0  0  0  0  0  0  0  0
   46.6580   49.5000   17.4760 C   0  0  0  0  0  0  0  0  0  0  0  0
   45.3750   49.2380   17.0310 C   0  0  0  0  0  0  0  0  0  0  0  0
   44.6090   48.2760   17.6580 C   0  0  0  0  0  0  0  0  0  0  0  0
   45.1280   47.5700   18.7360 C   0  0  0  0  0  0  0  0  0  0  0  0
   46.4170   47.8350   19.1800 C   0  0  0  0  0  0  0  0  0  0  0  0
   47.1800   48.7960   18.5450 C   0  0  0  0  0  0  0  0  0  0  0  0
   44.3550   46.5960   19.3720 N   0  0  0  0  0  0  0  0  0  0  0  0
   44.6400   45.6680   19.3620 H   0  0  0  0  0  0  0  0  0  0  0  0
   43.5340   46.8470   19.8240 H   0  0  0  0  0  0  0  0  0  0  0  0
  1  7  1  0  0  0  0
  2  1  1  0  0  0  0
  3 11  1  0  0  0  0
  3  4  1  0  0  0  0
  5  4  2  0  0  0  0
  6  5  1  0  0  0  0
  7  8  1  0  0  0  0
  7  6  2  0  0  0  0
  8  3  1  0  0  0  0
  9  8  2  0  0  0  0
 11 10  1  0  0  0  0
 12 11  1  0  0  0  0
 13 11  1  0  0  0  0
 14  1  1  0  0  0  0
 14 15  1  0  0  0  0
 15 16  1  0  0  0  0
 16 21  1  0  0  0  0
 17 16  2  0  0  0  0
 17 18  1  0  0  0  0
 18 19  2  0  0  0  0
 19 20  1  0  0  0  0
 19 22  1  0  0  0  0
 21 20  2  0  0  0  0
 22 24  1  0  0  0  0
 23 22  1  0  0  0  0
M  END
>  <MODEL>
1

>  <REMARK>
  Name = ZINC61768890
                            x       y       z     vdW  Elec       q    Type
                         _______ _______ _______ _____ _____    ______ ____

>  <TORSDO>
F 6

>  <minimizedAffinity>
-7.9769014321724443

$$$$
ZINC61768890
 OpenBabel10211214413D

 24 25  0  0  0  0  0  0  0  0999 V2000
   50.0090   50.9170   16.8710 N   0  0  0  0  0  0  0  0  0  0  0  0
   50.4330   51.4440   16.1760 H   0  0  0  0  0  0  0  0  0  0  0  0
   50.9450   52.5420   20.0490 N   0  0  0  0  0  0  0  0  0  0  0  0
   51.1350   51.4110   20.7880 C   0  0  0  0  0  0  0  0  0  0  0  0
   50.9560   50.1890   20.2410 C   0  0  0  0  0  0  0  0  0  0  0  0
   50.5910   50.0370   18.9690 N   0  0  0  0  0  0  0  0  0  0  0  0
   50.3890   51.0840   18.1970 C   0  0  0  0  0  0  0  0  0  0  0  0
   50.5690   52.4270   18.7570 C   0  0  0  0  0  0  0  0  0  0  0  0
   50.3860   53.4200   18.0700 O   0  0  0  0  0  0  0  0  0  0  0  0
   51.5340   53.6980   22.1220 C   0  0  0  0  0  0  0  0  0  0  0  0
   51.1410   53.8620   20.6520 C   0  0  0  0  0  0  0  0  0  0  0  0
   52.2530   54.6030   19.9070 C   0  0  0  0  0  0  0  0  0  0  0  0
   49.8410   54.6650   20.5580 C   0  0  0  0  0  0  0  0  0  0  0  0
   48.9690   49.9470   16.5240 C   0  0  0  0  0  0  0  0  0  0  0  0
   47.5930   50.5450   16.8240 C   0  0  0  0  0  0  0  0  0  0  0  0
   46.7270   49.5060   17.4910 C   0  0  0  0  0  0  0  0  0  0  0  0
   47.2260   48.7690   18.5500 C   0  0  0  0  0  0  0  0  0  0  0  0
   46.4360   47.8170   19.1620 C   0  0  0  0  0  0  0  0  0  0  0  0
   45.1390   47.6000   18.7140 C   0  0  0  0  0  0  0  0  0  0  0  0
   44.6410   48.3410   17.6510 C   0  0  0  0  0  0  0  0  0  0  0  0
   45.4350   49.2960   17.0460 C   0  0  0  0  0  0  0  0  0  0  0  0
   44.3380   46.6360   19.3320 N   0  0  0  0  0  0  0  0  0  0  0  0
   44.5160   46.3740   20.2490 H   0  0  0  0  0  0  0  0  0  0  0  0
   43.6050   46.2290   18.8440 H   0  0  0  0  0  0  0  0  0  0  0  0
  1  7  1  0  0  0  0
  2  1  1  0  0  0  0
  3 11  1  0  0  0  0
  3  4  1  0  0  0  0
  5  4  2  0  0  0  0
  6  5  1  0  0  0  0
  7  8  1  0  0  0  0
  7  6  2  0  0  0  0
  8  3  1  0  0  0  0
  9  8  2  0  0  0  0
 11 10  1  0  0  0  0
 12 11  1  0  0  0  0
 13 11  1  0  0  0  0
 14 15  1  0  0  0  0
 14  1  1  0  0  0  0
 15 16  1  0  0  0  0
 16 17  1  0  0  0  0
 17 18  2  0  0  0  0
 19 18  1  0  0  0  0
 19 22  1  0  0  0  0
 20 19  2  0  0  0  0
 21 16  2  0  0  0  0
 21 20  1  0  0  0  0
 22 23  1  0  0  0  0
 24 22  1  0  0  0  0
M  END
>  <MODEL>
2

>  <REMARK>
  Name = ZINC61768890
                            x       y       z     vdW  Elec       q    Type
                         _______ _______ _______ _____ _____    ______ ____

>  <TORSDO>
F 6

>  <minimizedAffinity>
-7.9599465963728937

$$$$
ZINC61768890
 OpenBabel10211214413D

 24 25  0  0  0  0  0  0  0  0999 V2000
   51.8250   51.9560   18.0020 N   0  0  0  0  0  0  0  0  0  0  0  0
   52.4780   52.3320   17.3910 H   0  0  0  0  0  0  0  0  0  0  0  0
   51.6500   54.1830   20.9390 N   0  0  0  0  0  0  0  0  0  0  0  0
   51.7090   53.2220   21.9050 C   0  0  0  0  0  0  0  0  0  0  0  0
   51.8000   51.9150   21.5770 C   0  0  0  0  0  0  0  0  0  0  0  0
   51.8370   51.5110   20.3070 N   0  0  0  0  0  0  0  0  0  0  0  0
   51.7850   52.3840   19.3230 C   0  0  0  0  0  0  0  0  0  0  0  0
   51.6800   53.8120   19.6400 C   0  0  0  0  0  0  0  0  0  0  0  0
   51.6250   54.6470   18.7520 O   0  0  0  0  0  0  0  0  0  0  0  0
   51.7020   55.7420   22.8230 C   0  0  0  0  0  0  0  0  0  0  0  0
   51.5510   55.5970   21.3070 C   0  0  0  0  0  0  0  0  0  0  0  0
   52.6600   56.3850   20.6060 C   0  0  0  0  0  0  0  0  0  0  0  0
   50.1880   56.1420   20.8750 C   0  0  0  0  0  0  0  0  0  0  0  0
   50.8810   50.9390   17.5330 C   0  0  0  0  0  0  0  0  0  0  0  0
   49.4990   51.5710   17.3540 C   0  0  0  0  0  0  0  0  0  0  0  0
   48.4360   50.5510   17.6770 C   0  0  0  0  0  0  0  0  0  0  0  0
   48.7140   49.5180   18.5530 C   0  0  0  0  0  0  0  0  0  0  0  0
   47.7430   48.5830   18.8500 C   0  0  0  0  0  0  0  0  0  0  0  0
   46.4850   48.6820   18.2690 C   0  0  0  0  0  0  0  0  0  0  0  0
   46.2080   49.7210   17.3900 C   0  0  0  0  0  0  0  0  0  0  0  0
   47.1830   50.6560   17.1000 C   0  0  0  0  0  0  0  0  0  0  0  0
   45.5000   47.7370   18.5680 N   0  0  0  0  0  0  0  0  0  0  0  0
   45.7030   46.9980   19.1640 H   0  0  0  0  0  0  0  0  0  0  0  0
   44.6150   47.8190   18.1810 H   0  0  0  0  0  0  0  0  0  0  0  0
  1  7  1  0  0  0  0
  2  1  1  0  0  0  0
  3 11  1  0  0  0  0
  3  4  1  0  0  0  0
  5  4  2  0  0  0  0
  6  5  1  0  0  0  0
  7  8  1  0  0  0  0
  7  6  2  0  0  0  0
  8  3  1  0  0  0  0
  9  8  2  0  0  0  0
 11 10  1  0  0  0  0
 12 11  1  0  0  0  0
 13 11  1  0  0  0  0
 14  1  1  0  0  0  0
 15 14  1  0  0  0  0
 15 16  1  0  0  0  0
 16 17  2  0  0  0  0
 17 18  1  0  0  0  0
 19 22  1  0  0  0  0
 19 18  2  0  0  0  0
 20 19  1  0  0  0  0
 21 20  2  0  0  0  0
 21 16  1  0  0  0  0
 22 23  1  0  0  0  0
 24 22  1  0  0  0  0
M  END
>  <MODEL>
3

>  <REMARK>
  Name = ZINC61768890
                            x       y       z     vdW  Elec       q    Type
                         _______ _______ _______ _____ _____    ______ ____

>  <TORSDO>
F 6

>  <minimizedAffinity>
-7.8773228272082383

$$$$
ZINC61768890
 OpenBabel10211214413D

 24 25  0  0  0  0  0  0  0  0999 V2000
   50.5340   50.5060   19.9390 N   0  0  0  0  0  0  0  0  0  0  0  0
   50.3570   50.2350   20.8530 H   0  0  0  0  0  0  0  0  0  0  0  0
   51.6840   54.0030   20.2030 N   0  0  0  0  0  0  0  0  0  0  0  0
   52.6010   53.9740   19.1950 C   0  0  0  0  0  0  0  0  0  0  0  0
   52.8100   52.8470   18.4810 C   0  0  0  0  0  0  0  0  0  0  0  0
   52.1350   51.7250   18.7280 N   0  0  0  0  0  0  0  0  0  0  0  0
   51.2340   51.6790   19.6870 C   0  0  0  0  0  0  0  0  0  0  0  0
   50.9840   52.8820   20.4870 C   0  0  0  0  0  0  0  0  0  0  0  0
   50.1590   52.8740   21.3870 O   0  0  0  0  0  0  0  0  0  0  0  0
   51.6770   54.9450   22.4600 C   0  0  0  0  0  0  0  0  0  0  0  0
   51.4660   55.2310   20.9720 C   0  0  0  0  0  0  0  0  0  0  0  0
   52.4560   56.3030   20.5130 C   0  0  0  0  0  0  0  0  0  0  0  0
   50.0360   55.7270   20.7450 C   0  0  0  0  0  0  0  0  0  0  0  0
   50.0630   49.6810   18.8250 C   0  0  0  0  0  0  0  0  0  0  0  0
   49.0370   50.4660   18.0060 C   0  0  0  0  0  0  0  0  0  0  0  0
   47.7210   49.7300   18.0090 C   0  0  0  0  0  0  0  0  0  0  0  0
   47.5380   48.6480   18.8510 C   0  0  0  0  0  0  0  0  0  0  0  0
   46.3350   47.9720   18.8560 C   0  0  0  0  0  0  0  0  0  0  0  0
   45.3070   48.3810   18.0150 C   0  0  0  0  0  0  0  0  0  0  0  0
   45.4940   49.4670   17.1710 C   0  0  0  0  0  0  0  0  0  0  0  0
   46.6990   50.1430   17.1740 C   0  0  0  0  0  0  0  0  0  0  0  0
   44.0880   47.6980   18.0180 N   0  0  0  0  0  0  0  0  0  0  0  0
   43.2550   48.1940   17.9740 H   0  0  0  0  0  0  0  0  0  0  0  0
   44.0750   46.7290   18.0630 H   0  0  0  0  0  0  0  0  0  0  0  0
  1  2  1  0  0  0  0
  3  8  1  0  0  0  0
  3 11  1  0  0  0  0
  4  3  1  0  0  0  0
  5  6  1  0  0  0  0
  5  4  2  0  0  0  0
  6  7  2  0  0  0  0
  7  1  1  0  0  0  0
  7  8  1  0  0  0  0
  8  9  2  0  0  0  0
 11 10  1  0  0  0  0
 12 11  1  0  0  0  0
 13 11  1  0  0  0  0
 14  1  1  0  0  0  0
 15 16  1  0  0  0  0
 15 14  1  0  0  0  0
 16 17  2  0  0  0  0
 17 18  1  0  0  0  0
 19 22  1  0  0  0  0
 19 18  2  0  0  0  0
 20 21  2  0  0  0  0
 20 19  1  0  0  0  0
 21 16  1  0  0  0  0
 22 24  1  0  0  0  0
 23 22  1  0  0  0  0
M  END
>  <MODEL>
4

>  <REMARK>
  Name = ZINC61768890
                            x       y       z     vdW  Elec       q    Type
                         _______ _______ _______ _____ _____    ______ ____

>  <TORSDO>
F 6

>  <minimizedAffinity>
-7.677583732129138

$$$$
ZINC61768890
 OpenBabel10211214413D

 24 25  0  0  0  0  0  0  0  0999 V2000
   51.0920   52.7410   18.0410 N   0  0  0  0  0  0  0  0  0  0  0  0
   51.5370   52.8220   17.1830 H   0  0  0  0  0  0  0  0  0  0  0  0
   48.8570   49.8090   18.1790 N   0  0  0  0  0  0  0  0  0  0  0  0
   49.4860   49.1420   19.1890 C   0  0  0  0  0  0  0  0  0  0  0  0
   50.5890   49.6560   19.7760 C   0  0  0  0  0  0  0  0  0  0  0  0
   51.1040   50.8250   19.3980 N   0  0  0  0  0  0  0  0  0  0  0  0
   50.5490   51.5230   18.4300 C   0  0  0  0  0  0  0  0  0  0  0  0
   49.3540   50.9950   17.7650 C   0  0  0  0  0  0  0  0  0  0  0  0
   48.8160   51.6140   16.8610 O   0  0  0  0  0  0  0  0  0  0  0  0
   46.7040   50.3720   17.1650 C   0  0  0  0  0  0  0  0  0  0  0  0
   47.6620   49.2420   17.5500 C   0  0  0  0  0  0  0  0  0  0  0  0
   48.0650   48.4660   16.2950 C   0  0  0  0  0  0  0  0  0  0  0  0
   46.9670   48.2970   18.5320 C   0  0  0  0  0  0  0  0  0  0  0  0
   50.9930   53.9030   18.9270 C   0  0  0  0  0  0  0  0  0  0  0  0
   49.5190   54.2220   19.1870 C   0  0  0  0  0  0  0  0  0  0  0  0
   49.4160   55.4390   20.0710 C   0  0  0  0  0  0  0  0  0  0  0  0
   50.4370   55.7380   20.9550 C   0  0  0  0  0  0  0  0  0  0  0  0
   50.3460   56.8510   21.7660 C   0  0  0  0  0  0  0  0  0  0  0  0
   49.2270   57.6710   21.6940 C   0  0  0  0  0  0  0  0  0  0  0  0
   48.2030   57.3680   20.8060 C   0  0  0  0  0  0  0  0  0  0  0  0
   48.3030   56.2550   19.9930 C   0  0  0  0  0  0  0  0  0  0  0  0
   49.1320   58.7970   22.5140 N   0  0  0  0  0  0  0  0  0  0  0  0
   49.4840   59.6500   22.2100 H   0  0  0  0  0  0  0  0  0  0  0  0
   48.7140   58.7290   23.3870 H   0  0  0  0  0  0  0  0  0  0  0  0
  1  7  1  0  0  0  0
  1 14  1  0  0  0  0
  2  1  1  0  0  0  0
  3  4  1  0  0  0  0
  4  5  2  0  0  0  0
  6  5  1  0  0  0  0
  7  6  2  0  0  0  0
  8  3  1  0  0  0  0
  8  7  1  0  0  0  0
  9  8  2  0  0  0  0
 10 11  1  0  0  0  0
 11  3  1  0  0  0  0
 11 13  1  0  0  0  0
 12 11  1  0  0  0  0
 14 15  1  0  0  0  0
 15 16  1  0  0  0  0
 16 17  1  0  0  0  0
 17 18  2  0  0  0  0
 19 18  1  0  0  0  0
 19 22  1  0  0  0  0
 20 19  2  0  0  0  0
 21 16  2  0  0  0  0
 21 20  1  0  0  0  0
 22 24  1  0  0  0  0
 23 22  1  0  0  0  0
M  END
>  <MODEL>
5

>  <REMARK>
  Name = ZINC61768890
                            x       y       z     vdW  Elec       q    Type
                         _______ _______ _______ _____ _____    ______ ____

>  <TORSDO>
F 6

>  <minimizedAffinity>
-7.5830993886041886

$$$$
ZINC61768890
 OpenBabel10211214413D

 24 25  0  0  0  0  0  0  0  0999 V2000
   51.0800   52.4000   18.0400 N   0  0  0  0  0  0  0  0  0  0  0  0
   51.7630   51.7870   17.7260 H   0  0  0  0  0  0  0  0  0  0  0  0
   47.8730   50.6680   17.4620 N   0  0  0  0  0  0  0  0  0  0  0  0
   47.1440   51.7520   17.0710 C   0  0  0  0  0  0  0  0  0  0  0  0
   47.7050   52.9790   17.0090 C   0  0  0  0  0  0  0  0  0  0  0  0
   48.9840   53.1820   17.3250 N   0  0  0  0  0  0  0  0  0  0  0  0
   49.7480   52.1820   17.7120 C   0  0  0  0  0  0  0  0  0  0  0  0
   49.1720   50.8360   17.7960 C   0  0  0  0  0  0  0  0  0  0  0  0
   49.8500   49.8870   18.1550 O   0  0  0  0  0  0  0  0  0  0  0  0
   47.8130   48.4650   16.4040 C   0  0  0  0  0  0  0  0  0  0  0  0
   47.2540   49.3430   17.5260 C   0  0  0  0  0  0  0  0  0  0  0  0
   47.5630   48.6990   18.8790 C   0  0  0  0  0  0  0  0  0  0  0  0
   45.7380   49.4790   17.3610 C   0  0  0  0  0  0  0  0  0  0  0  0
   51.4530   53.5560   18.8580 C   0  0  0  0  0  0  0  0  0  0  0  0
   50.8540   53.4040   20.2580 C   0  0  0  0  0  0  0  0  0  0  0  0
   50.4590   54.7600   20.7860 C   0  0  0  0  0  0  0  0  0  0  0  0
   51.2450   55.3870   21.7360 C   0  0  0  0  0  0  0  0  0  0  0  0
   50.8860   56.6280   22.2210 C   0  0  0  0  0  0  0  0  0  0  0  0
   49.7340   57.2480   21.7530 C   0  0  0  0  0  0  0  0  0  0  0  0
   48.9460   56.6170   20.7990 C   0  0  0  0  0  0  0  0  0  0  0  0
   49.3140   55.3770   20.3140 C   0  0  0  0  0  0  0  0  0  0  0  0
   49.3680   58.5040   22.2430 N   0  0  0  0  0  0  0  0  0  0  0  0
   50.0200   59.2230   22.2690 H   0  0  0  0  0  0  0  0  0  0  0  0
   48.4630   58.6580   22.5560 H   0  0  0  0  0  0  0  0  0  0  0  0
  1 14  1  0  0  0  0
  2  1  1  0  0  0  0
  3 11  1  0  0  0  0
  3  8  1  0  0  0  0
  4  3  1  0  0  0  0
  5  4  2  0  0  0  0
  5  6  1  0  0  0  0
  6  7  2  0  0  0  0
  7  8  1  0  0  0  0
  7  1  1  0  0  0  0
  8  9  2  0  0  0  0
 10 11  1  0  0  0  0
 11 12  1  0  0  0  0
 13 11  1  0  0  0  0
 14 15  1  0  0  0  0
 15 16  1  0  0  0  0
 16 17  1  0  0  0  0
 17 18  2  0  0  0  0
 19 18  1  0  0  0  0
 19 22  1  0  0  0  0
 20 19  2  0  0  0  0
 21 16  2  0  0  0  0
 21 20  1  0  0  0  0
 22 23  1  0  0  0  0
 22 24  1  0  0  0  0
M  END
>  <MODEL>
6

>  <REMARK>
  Name = ZINC61768890
                            x       y       z     vdW  Elec       q    Type
                         _______ _______ _______ _____ _____    ______ ____

>  <TORSDO>
F 6

>  <minimizedAffinity>
-7.5740316411382187

$$$$
ZINC61768890
 OpenBabel10211214413D

 24 25  0  0  0  0  0  0  0  0999 V2000
   50.6320   51.7920   17.5320 N   0  0  0  0  0  0  0  0  0  0  0  0
   51.5730   51.7320   17.3050 H   0  0  0  0  0  0  0  0  0  0  0  0
   50.4590   54.6520   19.8580 N   0  0  0  0  0  0  0  0  0  0  0  0
   49.2100   55.0880   19.5240 C   0  0  0  0  0  0  0  0  0  0  0  0
   48.4850   54.4540   18.5770 C   0  0  0  0  0  0  0  0  0  0  0  0
   48.9530   53.3840   17.9350 N   0  0  0  0  0  0  0  0  0  0  0  0
   50.1500   52.9080   18.2050 C   0  0  0  0  0  0  0  0  0  0  0  0
   50.9690   53.5740   19.2240 C   0  0  0  0  0  0  0  0  0  0  0  0
   52.0850   53.1610   19.4960 O   0  0  0  0  0  0  0  0  0  0  0  0
   51.6350   54.3560   21.9810 C   0  0  0  0  0  0  0  0  0  0  0  0
   51.2360   55.3480   20.8860 C   0  0  0  0  0  0  0  0  0  0  0  0
   52.4950   55.9460   20.2550 C   0  0  0  0  0  0  0  0  0  0  0  0
   50.3900   56.4680   21.4950 C   0  0  0  0  0  0  0  0  0  0  0  0
   49.7190   50.7080   17.1660 C   0  0  0  0  0  0  0  0  0  0  0  0
   49.2950   49.9510   18.4260 C   0  0  0  0  0  0  0  0  0  0  0  0
   47.8950   49.4190   18.2460 C   0  0  0  0  0  0  0  0  0  0  0  0
   47.4440   48.3810   19.0400 C   0  0  0  0  0  0  0  0  0  0  0  0
   46.1630   47.8930   18.8780 C   0  0  0  0  0  0  0  0  0  0  0  0
   45.3270   48.4450   17.9160 C   0  0  0  0  0  0  0  0  0  0  0  0
   45.7830   49.4880   17.1190 C   0  0  0  0  0  0  0  0  0  0  0  0
   47.0640   49.9750   17.2900 C   0  0  0  0  0  0  0  0  0  0  0  0
   44.0310   47.9520   17.7490 N   0  0  0  0  0  0  0  0  0  0  0  0
   43.8070   47.0610   18.0610 H   0  0  0  0  0  0  0  0  0  0  0  0
   43.3550   48.5000   17.3210 H   0  0  0  0  0  0  0  0  0  0  0  0
  1  7  1  0  0  0  0
  2  1  1  0  0  0  0
  3 11  1  0  0  0  0
  4  3  1  0  0  0  0
  5  4  2  0  0  0  0
  6  7  2  0  0  0  0
  6  5  1  0  0  0  0
  7  8  1  0  0  0  0
  8  9  2  0  0  0  0
  8  3  1  0  0  0  0
 11 13  1  0  0  0  0
 11 10  1  0  0  0  0
 12 11  1  0  0  0  0
 14  1  1  0  0  0  0
 14 15  1  0  0  0  0
 16 15  1  0  0  0  0
 16 17  2  0  0  0  0
 18 17  1  0  0  0  0
 19 18  2  0  0  0  0
 20 21  2  0  0  0  0
 20 19  1  0  0  0  0
 21 16  1  0  0  0  0
 22 19  1  0  0  0  0
 22 23  1  0  0  0  0
 24 22  1  0  0  0  0
M  END
>  <MODEL>
7

>  <REMARK>
  Name = ZINC61768890
                            x       y       z     vdW  Elec       q    Type
                         _______ _______ _______ _____ _____    ______ ____

>  <TORSDO>
F 6

>  <minimizedAffinity>
-7.5582763270223854

$$$$
ZINC61768890
 OpenBabel10211214413D

 24 25  0  0  0  0  0  0  0  0999 V2000
   48.3080   52.8250   16.8900 N   0  0  0  0  0  0  0  0  0  0  0  0
   48.6860   53.0870   16.0360 H   0  0  0  0  0  0  0  0  0  0  0  0
   50.4010   53.0250   19.9220 N   0  0  0  0  0  0  0  0  0  0  0  0
   49.9520   54.2280   20.3790 C   0  0  0  0  0  0  0  0  0  0  0  0
   49.0080   54.9170   19.7030 C   0  0  0  0  0  0  0  0  0  0  0  0
   48.4790   54.4550   18.5700 N   0  0  0  0  0  0  0  0  0  0  0  0
   48.8650   53.3000   18.0700 C   0  0  0  0  0  0  0  0  0  0  0  0
   49.8920   52.5260   18.7740 C   0  0  0  0  0  0  0  0  0  0  0  0
   50.2760   51.4540   18.3360 O   0  0  0  0  0  0  0  0  0  0  0  0
   50.8930   50.8970   21.0230 C   0  0  0  0  0  0  0  0  0  0  0  0
   51.4260   52.2860   20.6630 C   0  0  0  0  0  0  0  0  0  0  0  0
   52.6790   52.1430   19.7980 C   0  0  0  0  0  0  0  0  0  0  0  0
   51.7760   53.0460   21.9450 C   0  0  0  0  0  0  0  0  0  0  0  0
   47.1520   51.9270   16.9350 C   0  0  0  0  0  0  0  0  0  0  0  0
   47.5910   50.5110   16.5530 C   0  0  0  0  0  0  0  0  0  0  0  0
   46.7490   49.5060   17.2980 C   0  0  0  0  0  0  0  0  0  0  0  0
   45.4700   49.2180   16.8600 C   0  0  0  0  0  0  0  0  0  0  0  0
   44.6970   48.2980   17.5400 C   0  0  0  0  0  0  0  0  0  0  0  0
   45.2060   47.6620   18.6650 C   0  0  0  0  0  0  0  0  0  0  0  0
   46.4910   47.9550   19.1030 C   0  0  0  0  0  0  0  0  0  0  0  0
   47.2610   48.8720   18.4150 C   0  0  0  0  0  0  0  0  0  0  0  0
   44.4250   46.7320   19.3560 N   0  0  0  0  0  0  0  0  0  0  0  0
   44.8370   46.1450   20.0100 H   0  0  0  0  0  0  0  0  0  0  0  0
   43.4730   46.6730   19.1820 H   0  0  0  0  0  0  0  0  0  0  0  0
  1 14  1  0  0  0  0
  1  7  1  0  0  0  0
  2  1  1  0  0  0  0
  3  4  1  0  0  0  0
  3 11  1  0  0  0  0
  5  4  2  0  0  0  0
  6  5  1  0  0  0  0
  7  6  2  0  0  0  0
  7  8  1  0  0  0  0
  8  3  1  0  0  0  0
  9  8  2  0  0  0  0
 11 10  1  0  0  0  0
 11 13  1  0  0  0  0
 12 11  1  0  0  0  0
 15 14  1  0  0  0  0
 15 16  1  0  0  0  0
 16 21  1  0  0  0  0
 17 16  2  0  0  0  0
 17 18  1  0  0  0  0
 18 19  2  0  0  0  0
 19 20  1  0  0  0  0
 19 22  1  0  0  0  0
 21 20  2  0  0  0  0
 22 23  1  0  0  0  0
 24 22  1  0  0  0  0
M  END
>  <MODEL>
8

>  <REMARK>
  Name = ZINC61768890
                            x       y       z     vdW  Elec       q    Type
                         _______ _______ _______ _____ _____    ______ ____

>  <TORSDO>
F 6

>  <minimizedAffinity>
-7.5327418675001052

$$$$
ZINC61768890
 OpenBabel10211214413D

 24 25  0  0  0  0  0  0  0  0999 V2000
   52.0730   50.8360   21.3870 N   0  0  0  0  0  0  0  0  0  0  0  0
   52.7950   50.5330   21.9590 H   0  0  0  0  0  0  0  0  0  0  0  0
   51.8600   54.4230   20.5480 N   0  0  0  0  0  0  0  0  0  0  0  0
   52.4360   54.3590   19.3130 C   0  0  0  0  0  0  0  0  0  0  0  0
   52.8650   53.1830   18.8080 C   0  0  0  0  0  0  0  0  0  0  0  0
   52.7430   52.0420   19.4870 N   0  0  0  0  0  0  0  0  0  0  0  0
   52.1970   52.0280   20.6850 C   0  0  0  0  0  0  0  0  0  0  0  0
   51.7240   53.2870   21.2680 C   0  0  0  0  0  0  0  0  0  0  0  0
   51.2170   53.3110   22.3780 O   0  0  0  0  0  0  0  0  0  0  0  0
   52.0870   56.8480   20.3370 C   0  0  0  0  0  0  0  0  0  0  0  0
   51.3990   55.7040   21.0860 C   0  0  0  0  0  0  0  0  0  0  0  0
   49.8830   55.8170   20.9090 C   0  0  0  0  0  0  0  0  0  0  0  0
   51.7450   55.7870   22.5740 C   0  0  0  0  0  0  0  0  0  0  0  0
   50.8520   50.0360   21.2620 C   0  0  0  0  0  0  0  0  0  0  0  0
   50.9190   49.2000   19.9820 C   0  0  0  0  0  0  0  0  0  0  0  0
   49.6620   49.4130   19.1770 C   0  0  0  0  0  0  0  0  0  0  0  0
   48.5920   48.5500   19.3270 C   0  0  0  0  0  0  0  0  0  0  0  0
   47.4400   48.7430   18.5910 C   0  0  0  0  0  0  0  0  0  0  0  0
   47.3560   49.8050   17.7000 C   0  0  0  0  0  0  0  0  0  0  0  0
   48.4330   50.6700   17.5510 C   0  0  0  0  0  0  0  0  0  0  0  0
   49.5810   50.4740   18.2940 C   0  0  0  0  0  0  0  0  0  0  0  0
   46.1920   50.0020   16.9530 N   0  0  0  0  0  0  0  0  0  0  0  0
   46.1790   50.6610   16.2410 H   0  0  0  0  0  0  0  0  0  0  0  0
   45.3980   49.4800   17.1470 H   0  0  0  0  0  0  0  0  0  0  0  0
  1  2  1  0  0  0  0
  3 11  1  0  0  0  0
  3  8  1  0  0  0  0
  4  3  1  0  0  0  0
  5  4  2  0  0  0  0
  5  6  1  0  0  0  0
  6  7  2  0  0  0  0
  7  8  1  0  0  0  0
  7  1  1  0  0  0  0
  8  9  2  0  0  0  0
 10 11  1  0  0  0  0
 11 13  1  0  0  0  0
 12 11  1  0  0  0  0
 14  1  1  0  0  0  0
 15 14  1  0  0  0  0
 16 17  1  0  0  0  0
 16 15  1  0  0  0  0
 18 17  2  0  0  0  0
 19 18  1  0  0  0  0
 20 19  2  0  0  0  0
 20 21  1  0  0  0  0
 21 16  2  0  0  0  0
 22 24  1  0  0  0  0
 22 19  1  0  0  0  0
 23 22  1  0  0  0  0
M  END
>  <MODEL>
9

>  <REMARK>
  Name = ZINC61768890
                            x       y       z     vdW  Elec       q    Type
                         _______ _______ _______ _____ _____    ______ ____

>  <TORSDO>
F 6

>  <minimizedAffinity>
-7.4699035085748502

$$$$
ZINC53550505
 OpenBabel10211214423D

 18 18  0  0  1  0  0  0  0  0999 V2000
   51.3210   55.8750   20.4560 N   0  0  0  0  0  0  0  0  0  0  0  0
   50.9690   54.9780   20.1600 H   0  0  0  0  0  0  0  0  0  0  0  0
   52.1220   56.1240   19.8930 H   0  0  0  0  0  0  0  0  0  0  0  0
   50.2730   56.8910   20.2910 C   0  0  2  0  0  0  0  0  0  0  0  0
   49.6170   57.1700   21.6440 C   0  0  0  0  0  0  0  0  0  0  0  0
   48.5250   58.2280   21.4730 C   0  0  0  0  0  0  0  0  0  0  0  0
   47.4690   57.7170   20.4900 C   0  0  0  0  0  0  0  0  0  0  0  0
   48.1250   57.4380   19.1360 C   0  0  0  0  0  0  0  0  0  0  0  0
   49.2170   56.3810   19.3080 C   0  0  2  0  0  0  0  0  0  0  0  0
   48.5980   55.0910   19.8500 C   0  0  0  0  0  0  0  0  0  0  0  0
   51.7180   55.8040   21.8680 C   0  0  0  0  0  0  0  0  0  0  0  0
   51.6130   54.3580   22.3560 C   0  0  0  0  0  0  0  0  0  0  0  0
   51.8670   53.4690   21.2660 O   0  0  0  0  0  0  0  0  0  0  0  0
   51.8440   52.0870   21.6270 C   0  0  0  0  0  0  0  0  0  0  0  0
   51.8030   51.2290   20.3610 C   0  0  0  0  0  0  0  0  0  0  0  0
   50.6480   51.5710   19.5910 O   0  0  0  0  0  0  0  0  0  0  0  0
   50.2980   49.1890   19.8090 C   0  0  0  0  0  0  0  0  0  0  0  0
   49.9950   50.4480   18.9940 C   0  0  0  0  0  0  0  0  0  0  0  0
  1 11  1  0  0  0  0
  2  1  1  0  0  0  0
  3  1  1  0  0  0  0
  4  1  1  1  0  0  0
  4  5  1  0  0  0  0
  6  5  1  0  0  0  0
  7  6  1  0  0  0  0
  8  9  1  0  0  0  0
  8  7  1  0  0  0  0
  9 10  1  1  0  0  0
  9  4  1  0  0  0  0
 11 12  1  0  0  0  0
 13 14  1  0  0  0  0
 13 12  1  0  0  0  0
 15 14  1  0  0  0  0
 16 15  1  0  0  0  0
 18 16  1  0  0  0  0
 18 17  1  0  0  0  0
M  END
>  <MODEL>
1

>  <REMARK>
  Name = ZINC53550505
                            x       y       z     vdW  Elec       q    Type
                         _______ _______ _______ _____ _____    ______ ____

>  <TORSDO>
F 8

>  <minimizedAffinity>
-5.6352621103676208

$$$$
ZINC53550505
 OpenBabel10211214423D

 18 18  0  0  1  0  0  0  0  0999 V2000
   50.6090   50.2450   17.3900 N   0  0  0  0  0  0  0  0  0  0  0  0
   51.0670   49.3670   17.5830 H   0  0  0  0  0  0  0  0  0  0  0  0
   50.6190   50.4170   16.3960 H   0  0  0  0  0  0  0  0  0  0  0  0
   49.2190   50.1870   17.8640 C   0  0  2  0  0  0  0  0  0  0  0  0
   48.8860   48.7570   18.2940 C   0  0  0  0  0  0  0  0  0  0  0  0
   47.4400   48.6970   18.7880 C   0  0  0  0  0  0  0  0  0  0  0  0
   46.4980   49.1230   17.6590 C   0  0  0  0  0  0  0  0  0  0  0  0
   46.8310   50.5530   17.2290 C   0  0  0  0  0  0  0  0  0  0  0  0
   48.2770   50.6130   16.7360 C   0  0  2  0  0  0  0  0  0  0  0  0
   48.4500   49.6680   15.5440 C   0  0  0  0  0  0  0  0  0  0  0  0
   51.3180   51.3290   18.0810 C   0  0  0  0  0  0  0  0  0  0  0  0
   52.4600   50.7430   18.9140 C   0  0  0  0  0  0  0  0  0  0  0  0
   52.6750   51.5590   20.0670 O   0  0  0  0  0  0  0  0  0  0  0  0
   51.9300   51.1520   21.2160 C   0  0  0  0  0  0  0  0  0  0  0  0
   51.1180   52.3350   21.7450 C   0  0  0  0  0  0  0  0  0  0  0  0
   51.9880   53.4470   21.9720 O   0  0  0  0  0  0  0  0  0  0  0  0
   50.2490   54.5300   20.6900 C   0  0  0  0  0  0  0  0  0  0  0  0
   51.3960   54.7160   21.6850 C   0  0  0  0  0  0  0  0  0  0  0  0
  1  2  1  0  0  0  0
  1 11  1  0  0  0  0
  3  1  1  0  0  0  0
  4  1  1  6  0  0  0
  4  5  1  0  0  0  0
  5  6  1  0  0  0  0
  7  6  1  0  0  0  0
  8  7  1  0  0  0  0
  9 10  1  1  0  0  0
  9  8  1  0  0  0  0
  9  4  1  0  0  0  0
 11 12  1  0  0  0  0
 12 13  1  0  0  0  0
 13 14  1  0  0  0  0
 14 15  1  0  0  0  0
 15 16  1  0  0  0  0
 17 18  1  0  0  0  0
 18 16  1  0  0  0  0
M  END
>  <MODEL>
2

>  <REMARK>
  Name = ZINC53550505
                            x       y       z     vdW  Elec       q    Type
                         _______ _______ _______ _____ _____    ______ ____

>  <TORSDO>
F 8

>  <minimizedAffinity>
-5.6222100669023982

$$$$
ZINC53550505
 OpenBabel10211214423D

 18 18  0  0  1  0  0  0  0  0999 V2000
   50.9640   49.9540   18.0790 N   0  0  0  0  0  0  0  0  0  0  0  0
   50.4970   49.4310   18.8050 H   0  0  0  0  0  0  0  0  0  0  0  0
   51.4490   49.3170   17.4650 H   0  0  0  0  0  0  0  0  0  0  0  0
   49.9710   50.7160   17.3090 C   0  0  2  0  0  0  0  0  0  0  0  0
   49.5670   51.9660   18.0930 C   0  0  0  0  0  0  0  0  0  0  0  0
   48.5330   52.7580   17.2920 C   0  0  0  0  0  0  0  0  0  0  0  0
   47.2990   51.8870   17.0480 C   0  0  0  0  0  0  0  0  0  0  0  0
   47.7030   50.6380   16.2640 C   0  0  0  0  0  0  0  0  0  0  0  0
   48.7360   49.8450   17.0650 C   0  0  2  0  0  0  0  0  0  0  0  0
   48.1320   49.4310   18.4080 C   0  0  0  0  0  0  0  0  0  0  0  0
   51.9290   50.8800   18.6870 C   0  0  0  0  0  0  0  0  0  0  0  0
   52.7100   50.1550   19.7850 C   0  0  0  0  0  0  0  0  0  0  0  0
   52.7360   50.9640   20.9620 O   0  0  0  0  0  0  0  0  0  0  0  0
   52.2260   52.2850   20.7720 C   0  0  0  0  0  0  0  0  0  0  0  0
   51.4920   52.7360   22.0360 C   0  0  0  0  0  0  0  0  0  0  0  0
   51.9240   54.0520   22.3940 O   0  0  0  0  0  0  0  0  0  0  0  0
   51.4720   56.4230   22.2650 C   0  0  0  0  0  0  0  0  0  0  0  0
   51.4280   55.0790   21.5330 C   0  0  0  0  0  0  0  0  0  0  0  0
  1 11  1  0  0  0  0
  1  2  1  0  0  0  0
  3  1  1  0  0  0  0
  4  1  1  1  0  0  0
  4  5  1  0  0  0  0
  6  5  1  0  0  0  0
  7  6  1  0  0  0  0
  8  7  1  0  0  0  0
  8  9  1  0  0  0  0
  9  4  1  0  0  0  0
  9 10  1  1  0  0  0
 11 12  1  0  0  0  0
 12 13  1  0  0  0  0
 14 13  1  0  0  0  0
 14 15  1  0  0  0  0
 15 16  1  0  0  0  0
 18 17  1  0  0  0  0
 18 16  1  0  0  0  0
M  END
>  <MODEL>
3

>  <REMARK>
  Name = ZINC53550505
                            x       y       z     vdW  Elec       q    Type
                         _______ _______ _______ _____ _____    ______ ____

>  <TORSDO>
F 8

>  <minimizedAffinity>
-5.6053810357120639

$$$$
ZINC53550505
 OpenBabel10211214423D

 18 18  0  0  1  0  0  0  0  0999 V2000
   49.1660   48.3990   18.0090 N   0  0  0  0  0  0  0  0  0  0  0  0
   48.8830   47.7540   18.7310 H   0  0  0  0  0  0  0  0  0  0  0  0
   49.7820   47.9290   17.3620 H   0  0  0  0  0  0  0  0  0  0  0  0
   47.9790   48.8830   17.2910 C   0  0  2  0  0  0  0  0  0  0  0  0
   46.7690   48.8470   18.2250 C   0  0  0  0  0  0  0  0  0  0  0  0
   45.5330   49.3520   17.4780 C   0  0  0  0  0  0  0  0  0  0  0  0
   45.2690   48.4570   16.2650 C   0  0  0  0  0  0  0  0  0  0  0  0
   46.4800   48.4920   15.3310 C   0  0  0  0  0  0  0  0  0  0  0  0
   47.7150   47.9880   16.0790 C   0  0  2  0  0  0  0  0  0  0  0  0
   47.4770   46.5520   16.5480 C   0  0  0  0  0  0  0  0  0  0  0  0
   49.8700   49.5350   18.6180 C   0  0  0  0  0  0  0  0  0  0  0  0
   50.2580   49.1850   20.0550 C   0  0  0  0  0  0  0  0  0  0  0  0
   51.6430   48.8390   20.1030 O   0  0  0  0  0  0  0  0  0  0  0  0
   52.5190   49.8850   19.6780 C   0  0  0  0  0  0  0  0  0  0  0  0
   52.5510   50.9880   20.7370 C   0  0  0  0  0  0  0  0  0  0  0  0
   52.3810   52.2590   20.1060 O   0  0  0  0  0  0  0  0  0  0  0  0
   50.7970   52.5930   21.9010 C   0  0  0  0  0  0  0  0  0  0  0  0
   51.7980   53.2540   20.9510 C   0  0  0  0  0  0  0  0  0  0  0  0
  1 11  1  0  0  0  0
  1  2  1  0  0  0  0
  3  1  1  0  0  0  0
  4  1  1  1  0  0  0
  4  5  1  0  0  0  0
  6  5  1  0  0  0  0
  7  6  1  0  0  0  0
  8  9  1  0  0  0  0
  8  7  1  0  0  0  0
  9 10  1  1  0  0  0
  9  4  1  0  0  0  0
 11 12  1  0  0  0  0
 12 13  1  0  0  0  0
 14 13  1  0  0  0  0
 14 15  1  0  0  0  0
 16 15  1  0  0  0  0
 16 18  1  0  0  0  0
 18 17  1  0  0  0  0
M  END
>  <MODEL>
4

>  <REMARK>
  Name = ZINC53550505
                            x       y       z     vdW  Elec       q    Type
                         _______ _______ _______ _____ _____    ______ ____

>  <TORSDO>
F 8

>  <minimizedAffinity>
-5.5964371105136053

$$$$
ZINC53550505
 OpenBabel10211214423D

 18 18  0  0  1  0  0  0  0  0999 V2000
   49.7090   48.9050   18.3740 N   0  0  0  0  0  0  0  0  0  0  0  0
   49.3960   48.2270   19.0520 H   0  0  0  0  0  0  0  0  0  0  0  0
   50.4770   48.5210   17.8450 H   0  0  0  0  0  0  0  0  0  0  0  0
   48.6030   49.2330   17.4650 C   0  0  2  0  0  0  0  0  0  0  0  0
   47.2710   49.0660   18.1990 C   0  0  0  0  0  0  0  0  0  0  0  0
   46.1200   49.4080   17.2520 C   0  0  0  0  0  0  0  0  0  0  0  0
   46.1580   48.4690   16.0440 C   0  0  0  0  0  0  0  0  0  0  0  0
   47.4890   48.6360   15.3090 C   0  0  0  0  0  0  0  0  0  0  0  0
   48.6400   48.2950   16.2560 C   0  0  2  0  0  0  0  0  0  0  0  0
   48.4980   46.8470   16.7310 C   0  0  0  0  0  0  0  0  0  0  0  0
   50.1510   50.1220   19.0670 C   0  0  0  0  0  0  0  0  0  0  0  0
   51.4180   49.8200   19.8710 C   0  0  0  0  0  0  0  0  0  0  0  0
   52.1340   51.0340   20.1030 O   0  0  0  0  0  0  0  0  0  0  0  0
   52.1370   51.4560   21.4680 C   0  0  0  0  0  0  0  0  0  0  0  0
   51.2060   52.6590   21.6330 C   0  0  0  0  0  0  0  0  0  0  0  0
   51.9860   53.8430   21.8160 O   0  0  0  0  0  0  0  0  0  0  0  0
   51.8550   56.1510   22.5200 C   0  0  0  0  0  0  0  0  0  0  0  0
   51.2510   55.0560   21.6400 C   0  0  0  0  0  0  0  0  0  0  0  0
  1  2  1  0  0  0  0
  1 11  1  0  0  0  0
  3  1  1  0  0  0  0
  4  5  1  0  0  0  0
  4  1  1  1  0  0  0
  6  5  1  0  0  0  0
  7  6  1  0  0  0  0
  8  7  1  0  0  0  0
  8  9  1  0  0  0  0
  9 10  1  1  0  0  0
  9  4  1  0  0  0  0
 11 12  1  0  0  0  0
 12 13  1  0  0  0  0
 13 14  1  0  0  0  0
 14 15  1  0  0  0  0
 15 16  1  0  0  0  0
 18 16  1  0  0  0  0
 18 17  1  0  0  0  0
M  END
>  <MODEL>
5

>  <REMARK>
  Name = ZINC53550505
                            x       y       z     vdW  Elec       q    Type
                         _______ _______ _______ _____ _____    ______ ____

>  <TORSDO>
F 8

>  <minimizedAffinity>
-5.5787387201637779

$$$$
ZINC53550505
 OpenBabel10211214423D

 18 18  0  0  1  0  0  0  0  0999 V2000
   49.4780   49.1310   17.4230 N   0  0  0  0  0  0  0  0  0  0  0  0
   50.3270   48.6260   17.2190 H   0  0  0  0  0  0  0  0  0  0  0  0
   49.2200   49.6900   16.6230 H   0  0  0  0  0  0  0  0  0  0  0  0
   48.4000   48.1770   17.7210 C   0  0  2  0  0  0  0  0  0  0  0  0
   48.0250   47.4180   16.4470 C   0  0  0  0  0  0  0  0  0  0  0  0
   46.9030   46.4250   16.7580 C   0  0  0  0  0  0  0  0  0  0  0  0
   45.6800   47.1830   17.2800 C   0  0  0  0  0  0  0  0  0  0  0  0
   46.0560   47.9430   18.5530 C   0  0  0  0  0  0  0  0  0  0  0  0
   47.1780   48.9350   18.2430 C   0  0  2  0  0  0  0  0  0  0  0  0
   46.7020   49.9270   17.1800 C   0  0  0  0  0  0  0  0  0  0  0  0
   49.6940   50.0050   18.5830 C   0  0  0  0  0  0  0  0  0  0  0  0
   50.4630   51.2530   18.1460 C   0  0  0  0  0  0  0  0  0  0  0  0
   51.8320   50.9130   17.9180 O   0  0  0  0  0  0  0  0  0  0  0  0
   52.5510   50.5720   19.1050 C   0  0  0  0  0  0  0  0  0  0  0  0
   52.7010   51.8130   19.9870 C   0  0  0  0  0  0  0  0  0  0  0  0
   52.2540   51.5130   21.3110 O   0  0  0  0  0  0  0  0  0  0  0  0
   51.4930   53.6210   22.2170 C   0  0  0  0  0  0  0  0  0  0  0  0
   51.0870   52.2360   21.7080 C   0  0  0  0  0  0  0  0  0  0  0  0
  1 11  1  0  0  0  0
  2  1  1  0  0  0  0
  3  1  1  0  0  0  0
  4  1  1  6  0  0  0
  4  9  1  0  0  0  0
  5  6  1  0  0  0  0
  5  4  1  0  0  0  0
  6  7  1  0  0  0  0
  7  8  1  0  0  0  0
  9 10  1  6  0  0  0
  9  8  1  0  0  0  0
 12 11  1  0  0  0  0
 13 12  1  0  0  0  0
 13 14  1  0  0  0  0
 14 15  1  0  0  0  0
 15 16  1  0  0  0  0
 16 18  1  0  0  0  0
 18 17  1  0  0  0  0
M  END
>  <MODEL>
6

>  <REMARK>
  Name = ZINC53550505
                            x       y       z     vdW  Elec       q    Type
                         _______ _______ _______ _____ _____    ______ ____

>  <TORSDO>
F 8

>  <minimizedAffinity>
-5.4810799393486516

$$$$
ZINC53550505
 OpenBabel10211214423D

 18 18  0  0  1  0  0  0  0  0999 V2000
   49.6000   49.3390   17.6780 N   0  0  0  0  0  0  0  0  0  0  0  0
   50.3750   48.9670   17.1510 H   0  0  0  0  0  0  0  0  0  0  0  0
   49.2140   50.1350   17.1900 H   0  0  0  0  0  0  0  0  0  0  0  0
   48.5660   48.3060   17.8240 C   0  0  2  0  0  0  0  0  0  0  0  0
   48.2950   47.6590   16.4640 C   0  0  0  0  0  0  0  0  0  0  0  0
   47.2190   46.5830   16.6160 C   0  0  0  0  0  0  0  0  0  0  0  0
   45.9320   47.2200   17.1440 C   0  0  0  0  0  0  0  0  0  0  0  0
   46.2020   47.8660   18.5030 C   0  0  0  0  0  0  0  0  0  0  0  0
   47.2780   48.9420   18.3510 C   0  0  2  0  0  0  0  0  0  0  0  0
   46.7970   50.0090   17.3660 C   0  0  0  0  0  0  0  0  0  0  0  0
   50.0650   49.7590   19.0060 C   0  0  0  0  0  0  0  0  0  0  0  0
   50.8760   51.0500   18.8790 C   0  0  0  0  0  0  0  0  0  0  0  0
   50.6860   51.8470   20.0490 O   0  0  0  0  0  0  0  0  0  0  0  0
   51.8820   52.4600   20.5360 C   0  0  0  0  0  0  0  0  0  0  0  0
   51.5840   53.1960   21.8430 C   0  0  0  0  0  0  0  0  0  0  0  0
   52.1640   54.5020   21.7970 O   0  0  0  0  0  0  0  0  0  0  0  0
   51.6770   56.8540   22.0680 C   0  0  0  0  0  0  0  0  0  0  0  0
   51.5300   55.4500   22.6590 C   0  0  0  0  0  0  0  0  0  0  0  0
  1 11  1  0  0  0  0
  2  1  1  0  0  0  0
  3  1  1  0  0  0  0
  4  1  1  6  0  0  0
  4  9  1  0  0  0  0
  5  6  1  0  0  0  0
  5  4  1  0  0  0  0
  6  7  1  0  0  0  0
  7  8  1  0  0  0  0
  9 10  1  6  0  0  0
  9  8  1  0  0  0  0
 12 11  1  0  0  0  0
 12 13  1  0  0  0  0
 13 14  1  0  0  0  0
 14 15  1  0  0  0  0
 16 15  1  0  0  0  0
 16 18  1  0  0  0  0
 17 18  1  0  0  0  0
M  END
>  <MODEL>
7

>  <REMARK>
  Name = ZINC53550505
                            x       y       z     vdW  Elec       q    Type
                         _______ _______ _______ _____ _____    ______ ____

>  <TORSDO>
F 8

>  <minimizedAffinity>
-5.4791647661555851

$$$$
ZINC53550505
 OpenBabel10211214423D

 18 18  0  0  1  0  0  0  0  0999 V2000
   49.7510   49.1740   18.0280 N   0  0  0  0  0  0  0  0  0  0  0  0
   50.4990   48.7100   17.5370 H   0  0  0  0  0  0  0  0  0  0  0  0
   49.7710   50.1610   17.8160 H   0  0  0  0  0  0  0  0  0  0  0  0
   48.4620   48.6090   17.6040 C   0  0  2  0  0  0  0  0  0  0  0  0
   48.4850   48.3640   16.0940 C   0  0  0  0  0  0  0  0  0  0  0  0
   47.1440   47.7750   15.6530 C   0  0  0  0  0  0  0  0  0  0  0  0
   46.0190   48.7560   15.9940 C   0  0  0  0  0  0  0  0  0  0  0  0
   45.9970   49.0010   17.5040 C   0  0  0  0  0  0  0  0  0  0  0  0
   47.3380   49.5890   17.9450 C   0  0  2  0  0  0  0  0  0  0  0  0
   47.5780   50.9130   17.2170 C   0  0  0  0  0  0  0  0  0  0  0  0
   49.9190   48.9800   19.4740 C   0  0  0  0  0  0  0  0  0  0  0  0
   51.2630   49.5650   19.9140 C   0  0  0  0  0  0  0  0  0  0  0  0
   51.0830   50.3200   21.1140 O   0  0  0  0  0  0  0  0  0  0  0  0
   52.0780   51.3230   21.3250 C   0  0  0  0  0  0  0  0  0  0  0  0
   51.4060   52.6290   21.7520 C   0  0  0  0  0  0  0  0  0  0  0  0
   50.4480   53.0170   20.7640 O   0  0  0  0  0  0  0  0  0  0  0  0
   49.0000   54.7510   19.9040 C   0  0  0  0  0  0  0  0  0  0  0  0
   50.3280   54.4310   20.5950 C   0  0  0  0  0  0  0  0  0  0  0  0
  1 11  1  0  0  0  0
  2  1  1  0  0  0  0
  3  1  1  0  0  0  0
  4  9  1  0  0  0  0
  4  1  1  6  0  0  0
  5  4  1  0  0  0  0
  6  7  1  0  0  0  0
  6  5  1  0  0  0  0
  7  8  1  0  0  0  0
  8  9  1  0  0  0  0
  9 10  1  6  0  0  0
 11 12  1  0  0  0  0
 12 13  1  0  0  0  0
 13 14  1  0  0  0  0
 14 15  1  0  0  0  0
 16 15  1  0  0  0  0
 17 18  1  0  0  0  0
 18 16  1  0  0  0  0
M  END
>  <MODEL>
8

>  <REMARK>
  Name = ZINC53550505
                            x       y       z     vdW  Elec       q    Type
                         _______ _______ _______ _____ _____    ______ ____

>  <TORSDO>
F 8

>  <minimizedAffinity>
-5.4510037126031117

$$$$
ZINC53550505
 OpenBabel10211214423D

 18 18  0  0  1  0  0  0  0  0999 V2000
   50.6040   50.6580   17.0930 N   0  0  0  0  0  0  0  0  0  0  0  0
   51.0270   49.7660   16.8880 H   0  0  0  0  0  0  0  0  0  0  0  0
   50.5270   51.1970   16.2430 H   0  0  0  0  0  0  0  0  0  0  0  0
   49.2660   50.4470   17.6630 C   0  0  2  0  0  0  0  0  0  0  0  0
   49.1640   49.0210   18.2090 C   0  0  0  0  0  0  0  0  0  0  0  0
   47.7710   48.8020   18.8010 C   0  0  0  0  0  0  0  0  0  0  0  0
   46.7150   49.0090   17.7140 C   0  0  0  0  0  0  0  0  0  0  0  0
   46.8170   50.4340   17.1670 C   0  0  0  0  0  0  0  0  0  0  0  0
   48.2100   50.6540   16.5750 C   0  0  2  0  0  0  0  0  0  0  0  0
   48.4460   49.6550   15.4400 C   0  0  0  0  0  0  0  0  0  0  0  0
   51.4390   51.3850   18.0590 C   0  0  0  0  0  0  0  0  0  0  0  0
   50.8470   52.7740   18.3020 C   0  0  0  0  0  0  0  0  0  0  0  0
   51.9030   53.7040   18.5490 O   0  0  0  0  0  0  0  0  0  0  0  0
   52.0730   54.0380   19.9280 C   0  0  0  0  0  0  0  0  0  0  0  0
   52.5360   55.4910   20.0490 C   0  0  0  0  0  0  0  0  0  0  0  0
   52.4510   55.9070   21.4140 O   0  0  0  0  0  0  0  0  0  0  0  0
   50.3350   56.9860   21.8630 C   0  0  0  0  0  0  0  0  0  0  0  0
   51.8290   57.1810   21.5960 C   0  0  0  0  0  0  0  0  0  0  0  0
  1 11  1  0  0  0  0
  2  1  1  0  0  0  0
  3  1  1  0  0  0  0
  4  1  1  6  0  0  0
  4  5  1  0  0  0  0
  5  6  1  0  0  0  0
  7  6  1  0  0  0  0
  8  7  1  0  0  0  0
  9 10  1  1  0  0  0
  9  8  1  0  0  0  0
  9  4  1  0  0  0  0
 11 12  1  0  0  0  0
 12 13  1  0  0  0  0
 13 14  1  0  0  0  0
 14 15  1  0  0  0  0
 15 16  1  0  0  0  0
 16 18  1  0  0  0  0
 18 17  1  0  0  0  0
M  END
>  <MODEL>
9

>  <REMARK>
  Name = ZINC53550505
                            x       y       z     vdW  Elec       q    Type
                         _______ _______ _______ _____ _____    ______ ____

>  <TORSDO>
F 8

>  <minimizedAffinity>
-5.4197538991738456

$$$$
ZINC45276737
 OpenBabel10211214433D

 24 25  0  0  1  0  0  0  0  0999 V2000
   51.1140   55.4360   20.7980 C   0  0  1  0  0  0  0  0  0  0  0  0
   49.9050   56.3350   20.8580 C   0  0  0  0  0  0  0  0  0  0  0  0
   49.8970   57.4260   21.7070 C   0  0  0  0  0  0  0  0  0  0  0  0
   48.7880   58.2490   21.7630 C   0  0  0  0  0  0  0  0  0  0  0  0
   47.6880   57.9820   20.9690 C   0  0  0  0  0  0  0  0  0  0  0  0
   47.6970   56.8930   20.1190 C   0  0  0  0  0  0  0  0  0  0  0  0
   48.8080   56.0720   20.0600 C   0  0  0  0  0  0  0  0  0  0  0  0
   52.0290   55.9150   19.7530 N   0  0  0  0  0  0  0  0  0  0  0  0
   51.6050   56.6900   19.2650 H   0  0  0  0  0  0  0  0  0  0  0  0
   52.2160   55.1680   19.1020 H   0  0  0  0  0  0  0  0  0  0  0  0
   52.8940   56.2170   20.1760 H   0  0  0  0  0  0  0  0  0  0  0  0
   51.8190   55.4540   22.1300 C   0  0  0  0  0  0  0  0  0  0  0  0
   51.5010   54.6600   22.9980 O   0  0  0  0  0  0  0  0  0  0  0  0
   52.7090   56.2620   22.3370 O   0  0  0  0  0  0  0  0  0  0  0  0
   50.6720   54.0080   20.4730 C   0  0  0  0  0  0  0  0  0  0  0  0
   51.6790   53.3670   19.6170 N   0  0  0  0  0  0  0  0  0  0  0  0
   52.4080   54.0290   19.4020 H   0  0  0  0  0  0  0  0  0  0  0  0
   52.2570   52.2130   20.3210 C   0  0  0  0  0  0  0  0  0  0  0  0
   50.9510   50.1750   20.9370 C   0  0  0  0  0  0  0  0  0  0  0  0
   51.2220   51.6380   21.2910 C   0  0  0  0  0  0  0  0  0  0  0  0
   51.0460   52.9140   18.3720 C   0  0  0  0  0  0  0  0  0  0  0  0
   49.5250   52.9370   18.5340 C   0  0  0  0  0  0  0  0  0  0  0  0
   48.7070   51.9820   17.6620 C   0  0  0  0  0  0  0  0  0  0  0  0
   48.6970   53.4830   17.3690 C   0  0  0  0  0  0  0  0  0  0  0  0
  1  8  1  6  0  0  0
  1  2  1  0  0  0  0
  1 12  1  0  0  0  0
  2  3  2  0  0  0  0
  3  4  1  0  0  0  0
  5  4  2  0  0  0  0
  6  5  1  0  0  0  0
  7  6  2  0  0  0  0
  7  2  1  0  0  0  0
  8 11  1  0  0  0  0
  9  8  1  0  0  0  0
 10  8  1  0  0  0  0
 12 14  2  0  0  0  0
 12 13  1  0  0  0  0
 15  1  1  0  0  0  0
 16 18  1  0  0  0  0
 16 15  1  0  0  0  0
 17 16  1  0  0  0  0
 18 20  1  0  0  0  0
 19 20  1  0  0  0  0
 21 22  1  0  0  0  0
 21 16  1  0  0  0  0
 23 22  1  0  0  0  0
 24 23  1  0  0  0  0
 24 22  1  0  0  0  0
M  END
>  <MODEL>
1

>  <REMARK>
  Name = ZINC45276737
                            x       y       z     vdW  Elec       q    Type
                         _______ _______ _______ _____ _____    ______ ____

>  <TORSDO>
F 9

>  <minimizedAffinity>
-7.0567145752542784

$$$$
ZINC45276737
 OpenBabel10211214433D

 24 25  0  0  1  0  0  0  0  0999 V2000
   51.4620   50.8720   18.9200 C   0  0  1  0  0  0  0  0  0  0  0  0
   51.6050   52.1800   19.6570 C   0  0  0  0  0  0  0  0  0  0  0  0
   52.1300   53.2830   19.0110 C   0  0  0  0  0  0  0  0  0  0  0  0
   52.2610   54.4810   19.6860 C   0  0  0  0  0  0  0  0  0  0  0  0
   51.8670   54.5770   21.0080 C   0  0  0  0  0  0  0  0  0  0  0  0
   51.3390   53.4740   21.6530 C   0  0  0  0  0  0  0  0  0  0  0  0
   51.2050   52.2760   20.9760 C   0  0  0  0  0  0  0  0  0  0  0  0
   52.1730   50.9520   17.6380 N   0  0  0  0  0  0  0  0  0  0  0  0
   51.9350   51.8160   17.1740 H   0  0  0  0  0  0  0  0  0  0  0  0
   51.9060   50.1720   17.0560 H   0  0  0  0  0  0  0  0  0  0  0  0
   53.1680   50.9220   17.8030 H   0  0  0  0  0  0  0  0  0  0  0  0
   52.0490   49.7610   19.7520 C   0  0  0  0  0  0  0  0  0  0  0  0
   51.3330   48.8680   20.1700 O   0  0  0  0  0  0  0  0  0  0  0  0
   53.2420   49.7560   20.0070 O   0  0  0  0  0  0  0  0  0  0  0  0
   49.9800   50.5900   18.6650 C   0  0  0  0  0  0  0  0  0  0  0  0
   49.8230   49.9510   17.3520 N   0  0  0  0  0  0  0  0  0  0  0  0
   50.7270   49.6710   17.0030 H   0  0  0  0  0  0  0  0  0  0  0  0
   48.9600   48.7690   17.4810 C   0  0  0  0  0  0  0  0  0  0  0  0
   46.6980   48.4720   18.5000 C   0  0  0  0  0  0  0  0  0  0  0  0
   48.1500   48.8700   18.7750 C   0  0  0  0  0  0  0  0  0  0  0  0
   49.2120   50.9030   16.4150 C   0  0  0  0  0  0  0  0  0  0  0  0
   48.5780   52.0550   17.1970 C   0  0  0  0  0  0  0  0  0  0  0  0
   47.0540   52.1750   17.1670 C   0  0  0  0  0  0  0  0  0  0  0  0
   47.9150   53.1750   16.3930 C   0  0  0  0  0  0  0  0  0  0  0  0
  1  8  1  6  0  0  0
  1  2  1  0  0  0  0
  1 12  1  0  0  0  0
  2  7  1  0  0  0  0
  3  2  2  0  0  0  0
  3  4  1  0  0  0  0
  4  5  2  0  0  0  0
  5  6  1  0  0  0  0
  7  6  2  0  0  0  0
  8 11  1  0  0  0  0
  9  8  1  0  0  0  0
 10  8  1  0  0  0  0
 12 14  2  0  0  0  0
 12 13  1  0  0  0  0
 15  1  1  0  0  0  0
 16 18  1  0  0  0  0
 16 15  1  0  0  0  0
 17 16  1  0  0  0  0
 18 20  1  0  0  0  0
 19 20  1  0  0  0  0
 21 22  1  0  0  0  0
 21 16  1  0  0  0  0
 23 22  1  0  0  0  0
 24 23  1  0  0  0  0
 24 22  1  0  0  0  0
M  END
>  <MODEL>
2

>  <REMARK>
  Name = ZINC45276737
                            x       y       z     vdW  Elec       q    Type
                         _______ _______ _______ _____ _____    ______ ____

>  <TORSDO>
F 9

>  <minimizedAffinity>
-6.8630206970345817

$$$$
ZINC45276737
 OpenBabel10211214433D

 24 25  0  0  1  0  0  0  0  0999 V2000
   50.8310   53.7420   19.3460 C   0  0  1  0  0  0  0  0  0  0  0  0
   49.8010   53.1780   18.4000 C   0  0  0  0  0  0  0  0  0  0  0  0
   48.9540   54.0280   17.7140 C   0  0  0  0  0  0  0  0  0  0  0  0
   48.0100   53.5110   16.8470 C   0  0  0  0  0  0  0  0  0  0  0  0
   47.9130   52.1430   16.6660 C   0  0  0  0  0  0  0  0  0  0  0  0
   48.7620   51.2940   17.3510 C   0  0  0  0  0  0  0  0  0  0  0  0
   49.7090   51.8120   18.2150 C   0  0  0  0  0  0  0  0  0  0  0  0
   50.3790   53.5540   20.7310 N   0  0  0  0  0  0  0  0  0  0  0  0
   49.8050   54.3360   21.0070 H   0  0  0  0  0  0  0  0  0  0  0  0
   51.1810   53.4930   21.3410 H   0  0  0  0  0  0  0  0  0  0  0  0
   49.8420   52.7030   20.7960 H   0  0  0  0  0  0  0  0  0  0  0  0
   52.1430   53.0280   19.1430 C   0  0  0  0  0  0  0  0  0  0  0  0
   52.8060   53.2430   18.1440 O   0  0  0  0  0  0  0  0  0  0  0  0
   52.5400   52.2360   19.9810 O   0  0  0  0  0  0  0  0  0  0  0  0
   51.0150   55.2360   19.0680 C   0  0  0  0  0  0  0  0  0  0  0  0
   51.1840   55.9530   20.3390 N   0  0  0  0  0  0  0  0  0  0  0  0
   50.8840   55.3640   21.1000 H   0  0  0  0  0  0  0  0  0  0  0  0
   52.6000   56.3020   20.5190 C   0  0  0  0  0  0  0  0  0  0  0  0
   53.8490   57.9750   21.8910 C   0  0  0  0  0  0  0  0  0  0  0  0
   52.7170   57.7850   20.8790 C   0  0  0  0  0  0  0  0  0  0  0  0
   50.3760   57.1790   20.3200 C   0  0  0  0  0  0  0  0  0  0  0  0
   49.0370   56.9180   21.0110 C   0  0  0  0  0  0  0  0  0  0  0  0
   47.8010   56.7660   20.1220 C   0  0  0  0  0  0  0  0  0  0  0  0
   47.9870   58.0310   20.9630 C   0  0  0  0  0  0  0  0  0  0  0  0
  1  2  1  6  0  0  0
  1  8  1  0  0  0  0
  3  2  2  0  0  0  0
  4  3  1  0  0  0  0
  5  4  2  0  0  0  0
  5  6  1  0  0  0  0
  6  7  2  0  0  0  0
  7  2  1  0  0  0  0
  8 11  1  0  0  0  0
  8  9  1  0  0  0  0
  8 10  1  0  0  0  0
 12  1  1  0  0  0  0
 12 14  1  0  0  0  0
 13 12  2  0  0  0  0
 15  1  1  0  0  0  0
 15 16  1  0  0  0  0
 16 18  1  0  0  0  0
 16 17  1  0  0  0  0
 18 20  1  0  0  0  0
 20 19  1  0  0  0  0
 21 16  1  0  0  0  0
 21 22  1  0  0  0  0
 23 24  1  0  0  0  0
 23 22  1  0  0  0  0
 24 22  1  0  0  0  0
M  END
>  <MODEL>
3

>  <REMARK>
  Name = ZINC45276737
                            x       y       z     vdW  Elec       q    Type
                         _______ _______ _______ _____ _____    ______ ____

>  <TORSDO>
F 9

>  <minimizedAffinity>
-6.7039014734620004

$$$$
ZINC45276737
 OpenBabel10211214433D

 24 25  0  0  1  0  0  0  0  0999 V2000
   51.3670   50.8000   18.8780 C   0  0  1  0  0  0  0  0  0  0  0  0
   51.5110   52.1420   19.5500 C   0  0  0  0  0  0  0  0  0  0  0  0
   50.9570   52.3520   20.7990 C   0  0  0  0  0  0  0  0  0  0  0  0
   51.0890   53.5820   21.4140 C   0  0  0  0  0  0  0  0  0  0  0  0
   51.7750   54.6020   20.7820 C   0  0  0  0  0  0  0  0  0  0  0  0
   52.3310   54.3910   19.5340 C   0  0  0  0  0  0  0  0  0  0  0  0
   52.2030   53.1590   18.9200 C   0  0  0  0  0  0  0  0  0  0  0  0
   52.0310   50.8340   17.5680 N   0  0  0  0  0  0  0  0  0  0  0  0
   52.5290   49.9690   17.4210 H   0  0  0  0  0  0  0  0  0  0  0  0
   52.6800   51.6060   17.5400 H   0  0  0  0  0  0  0  0  0  0  0  0
   51.3390   50.9500   16.8440 H   0  0  0  0  0  0  0  0  0  0  0  0
   52.0040   49.7380   19.7370 C   0  0  0  0  0  0  0  0  0  0  0  0
   53.2050   49.7580   19.9420 O   0  0  0  0  0  0  0  0  0  0  0  0
   51.3160   48.8580   20.2280 O   0  0  0  0  0  0  0  0  0  0  0  0
   49.8820   50.4810   18.6900 C   0  0  0  0  0  0  0  0  0  0  0  0
   49.7220   49.5450   17.5680 N   0  0  0  0  0  0  0  0  0  0  0  0
   50.6300   49.2490   17.2440 H   0  0  0  0  0  0  0  0  0  0  0  0
   48.9550   48.3740   18.0130 C   0  0  0  0  0  0  0  0  0  0  0  0
   46.5070   48.0750   18.4160 C   0  0  0  0  0  0  0  0  0  0  0  0
   47.7610   48.8360   18.8520 C   0  0  0  0  0  0  0  0  0  0  0  0
   49.0050   50.2130   16.4740 C   0  0  0  0  0  0  0  0  0  0  0  0
   48.8640   49.2490   15.2940 C   0  0  0  0  0  0  0  0  0  0  0  0
   48.3640   49.8250   13.9680 C   0  0  0  0  0  0  0  0  0  0  0  0
   47.4490   48.9310   14.8070 C   0  0  0  0  0  0  0  0  0  0  0  0
  1  8  1  6  0  0  0
  1  2  1  0  0  0  0
  1 12  1  0  0  0  0
  2  3  2  0  0  0  0
  3  4  1  0  0  0  0
  5  4  2  0  0  0  0
  6  5  1  0  0  0  0
  7  6  2  0  0  0  0
  7  2  1  0  0  0  0
  9  8  1  0  0  0  0
 10  8  1  0  0  0  0
 11  8  1  0  0  0  0
 12 13  2  0  0  0  0
 12 14  1  0  0  0  0
 15  1  1  0  0  0  0
 16 18  1  0  0  0  0
 16 15  1  0  0  0  0
 17 16  1  0  0  0  0
 18 20  1  0  0  0  0
 19 20  1  0  0  0  0
 21 16  1  0  0  0  0
 22 21  1  0  0  0  0
 23 24  1  0  0  0  0
 23 22  1  0  0  0  0
 24 22  1  0  0  0  0
M  END
>  <MODEL>
4

>  <REMARK>
  Name = ZINC45276737
                            x       y       z     vdW  Elec       q    Type
                         _______ _______ _______ _____ _____    ______ ____

>  <TORSDO>
F 9

>  <minimizedAffinity>
-6.6405181648786726

$$$$
ZINC45276737
 OpenBabel10211214433D

 24 25  0  0  1  0  0  0  0  0999 V2000
   48.9160   51.5510   17.3370 C   0  0  1  0  0  0  0  0  0  0  0  0
   47.9430   50.4470   17.6640 C   0  0  0  0  0  0  0  0  0  0  0  0
   48.3090   49.4400   18.5380 C   0  0  0  0  0  0  0  0  0  0  0  0
   47.4170   48.4280   18.8370 C   0  0  0  0  0  0  0  0  0  0  0  0
   46.1580   48.4240   18.2640 C   0  0  0  0  0  0  0  0  0  0  0  0
   45.7920   49.4320   17.3930 C   0  0  0  0  0  0  0  0  0  0  0  0
   46.6830   50.4460   17.0960 C   0  0  0  0  0  0  0  0  0  0  0  0
   49.7360   51.1550   16.1840 N   0  0  0  0  0  0  0  0  0  0  0  0
   50.3800   51.8990   15.9590 H   0  0  0  0  0  0  0  0  0  0  0  0
   49.1380   50.9750   15.3920 H   0  0  0  0  0  0  0  0  0  0  0  0
   50.2540   50.3200   16.4110 H   0  0  0  0  0  0  0  0  0  0  0  0
   48.1550   52.8090   17.0040 C   0  0  0  0  0  0  0  0  0  0  0  0
   47.8160   53.5700   17.8940 O   0  0  0  0  0  0  0  0  0  0  0  0
   47.8800   53.0650   15.8440 O   0  0  0  0  0  0  0  0  0  0  0  0
   49.8220   51.8070   18.5440 C   0  0  0  0  0  0  0  0  0  0  0  0
   51.0220   52.5350   18.1090 N   0  0  0  0  0  0  0  0  0  0  0  0
   50.9590   52.7280   17.1210 H   0  0  0  0  0  0  0  0  0  0  0  0
   51.1230   53.8000   18.8500 C   0  0  0  0  0  0  0  0  0  0  0  0
   51.2010   54.0950   21.3290 C   0  0  0  0  0  0  0  0  0  0  0  0
   50.3170   53.6960   20.1460 C   0  0  0  0  0  0  0  0  0  0  0  0
   52.2120   51.7160   18.3730 C   0  0  0  0  0  0  0  0  0  0  0  0
   51.8510   50.5850   19.3360 C   0  0  0  0  0  0  0  0  0  0  0  0
   52.4400   50.6430   20.7470 C   0  0  0  0  0  0  0  0  0  0  0  0
   52.9660   49.6170   19.7410 C   0  0  0  0  0  0  0  0  0  0  0  0
  1  8  1  6  0  0  0
  1  2  1  0  0  0  0
  1 15  1  0  0  0  0
  2  3  2  0  0  0  0
  3  4  1  0  0  0  0
  5  4  2  0  0  0  0
  6  5  1  0  0  0  0
  7  6  2  0  0  0  0
  7  2  1  0  0  0  0
  8 11  1  0  0  0  0
  9  8  1  0  0  0  0
 10  8  1  0  0  0  0
 12  1  1  0  0  0  0
 12 13  1  0  0  0  0
 14 12  2  0  0  0  0
 16 21  1  0  0  0  0
 16 15  1  0  0  0  0
 16 18  1  0  0  0  0
 17 16  1  0  0  0  0
 18 20  1  0  0  0  0
 20 19  1  0  0  0  0
 21 22  1  0  0  0  0
 22 24  1  0  0  0  0
 22 23  1  0  0  0  0
 24 23  1  0  0  0  0
M  END
>  <MODEL>
5

>  <REMARK>
  Name = ZINC45276737
                            x       y       z     vdW  Elec       q    Type
                         _______ _______ _______ _____ _____    ______ ____

>  <TORSDO>
F 9

>  <minimizedAffinity>
-6.5318880811609068

$$$$
ZINC45276737
 OpenBabel10211214433D

 24 25  0  0  1  0  0  0  0  0999 V2000
   48.6390   49.6990   16.7030 C   0  0  1  0  0  0  0  0  0  0  0  0
   48.9680   51.0610   17.2600 C   0  0  0  0  0  0  0  0  0  0  0  0
   48.0250   52.0710   17.2160 C   0  0  0  0  0  0  0  0  0  0  0  0
   48.3260   53.3200   17.7260 C   0  0  0  0  0  0  0  0  0  0  0  0
   49.5700   53.5590   18.2800 C   0  0  0  0  0  0  0  0  0  0  0  0
   50.5120   52.5480   18.3260 C   0  0  0  0  0  0  0  0  0  0  0  0
   50.2090   51.2980   17.8200 C   0  0  0  0  0  0  0  0  0  0  0  0
   49.6900   49.2880   15.7630 N   0  0  0  0  0  0  0  0  0  0  0  0
   49.7560   49.9630   15.0160 H   0  0  0  0  0  0  0  0  0  0  0  0
   49.4630   48.3820   15.3800 H   0  0  0  0  0  0  0  0  0  0  0  0
   50.5730   49.2360   16.2470 H   0  0  0  0  0  0  0  0  0  0  0  0
   48.5560   48.7030   17.8310 C   0  0  0  0  0  0  0  0  0  0  0  0
   48.9370   47.5580   17.6630 O   0  0  0  0  0  0  0  0  0  0  0  0
   48.1090   49.0450   18.9130 O   0  0  0  0  0  0  0  0  0  0  0  0
   47.2950   49.7570   15.9740 C   0  0  0  0  0  0  0  0  0  0  0  0
   46.6160   48.4600   16.0970 N   0  0  0  0  0  0  0  0  0  0  0  0
   47.0230   47.9380   16.8580 H   0  0  0  0  0  0  0  0  0  0  0  0
   45.1870   48.6780   16.3630 C   0  0  0  0  0  0  0  0  0  0  0  0
   45.1660   47.2310   18.3980 C   0  0  0  0  0  0  0  0  0  0  0  0
   44.9410   48.6500   17.8720 C   0  0  0  0  0  0  0  0  0  0  0  0
   46.7720   47.7050   14.8470 C   0  0  0  0  0  0  0  0  0  0  0  0
   45.5180   47.8750   13.9880 C   0  0  0  0  0  0  0  0  0  0  0  0
   45.2910   46.8660   12.8610 C   0  0  0  0  0  0  0  0  0  0  0  0
   45.7110   48.2990   12.5300 C   0  0  0  0  0  0  0  0  0  0  0  0
  1  8  1  6  0  0  0
  1  2  1  0  0  0  0
  1 12  1  0  0  0  0
  2  7  1  0  0  0  0
  3  2  2  0  0  0  0
  3  4  1  0  0  0  0
  4  5  2  0  0  0  0
  5  6  1  0  0  0  0
  7  6  2  0  0  0  0
  8 11  1  0  0  0  0
  9  8  1  0  0  0  0
 10  8  1  0  0  0  0
 12 14  1  0  0  0  0
 13 12  2  0  0  0  0
 15 16  1  0  0  0  0
 15  1  1  0  0  0  0
 16 18  1  0  0  0  0
 16 17  1  0  0  0  0
 18 20  1  0  0  0  0
 20 19  1  0  0  0  0
 21 16  1  0  0  0  0
 22 21  1  0  0  0  0
 23 22  1  0  0  0  0
 24 23  1  0  0  0  0
 24 22  1  0  0  0  0
M  END
>  <MODEL>
6

>  <REMARK>
  Name = ZINC45276737
                            x       y       z     vdW  Elec       q    Type
                         _______ _______ _______ _____ _____    ______ ____

>  <TORSDO>
F 9

>  <minimizedAffinity>
-6.0156704313263791

$$$$
ZINC45276737
 OpenBabel10211214433D

 24 25  0  0  1  0  0  0  0  0999 V2000
   51.1340   55.2040   20.3800 C   0  0  1  0  0  0  0  0  0  0  0  0
   49.9960   56.1680   20.5980 C   0  0  0  0  0  0  0  0  0  0  0  0
   48.8640   56.0920   19.8080 C   0  0  0  0  0  0  0  0  0  0  0  0
   47.8220   56.9760   20.0090 C   0  0  0  0  0  0  0  0  0  0  0  0
   47.9100   57.9370   20.9990 C   0  0  0  0  0  0  0  0  0  0  0  0
   49.0410   58.0120   21.7900 C   0  0  0  0  0  0  0  0  0  0  0  0
   50.0820   57.1240   21.5920 C   0  0  0  0  0  0  0  0  0  0  0  0
   52.4120   55.9180   20.4980 N   0  0  0  0  0  0  0  0  0  0  0  0
   52.3180   56.6670   21.1680 H   0  0  0  0  0  0  0  0  0  0  0  0
   52.6680   56.3000   19.6000 H   0  0  0  0  0  0  0  0  0  0  0  0
   53.1270   55.2780   20.8080 H   0  0  0  0  0  0  0  0  0  0  0  0
   51.0710   54.1110   21.4160 C   0  0  0  0  0  0  0  0  0  0  0  0
   52.0640   53.8240   22.0610 O   0  0  0  0  0  0  0  0  0  0  0  0
   50.0250   53.5140   21.6080 O   0  0  0  0  0  0  0  0  0  0  0  0
   51.0200   54.5890   18.9830 C   0  0  0  0  0  0  0  0  0  0  0  0
   50.7010   53.1600   19.1020 N   0  0  0  0  0  0  0  0  0  0  0  0
   50.6130   52.9150   20.0760 H   0  0  0  0  0  0  0  0  0  0  0  0
   49.4350   52.8810   18.4100 C   0  0  0  0  0  0  0  0  0  0  0  0
   48.5360   51.7540   16.3700 C   0  0  0  0  0  0  0  0  0  0  0  0
   49.6330   51.7180   17.4360 C   0  0  0  0  0  0  0  0  0  0  0  0
   51.7770   52.3660   18.4930 C   0  0  0  0  0  0  0  0  0  0  0  0
   52.5010   51.5700   19.5800 C   0  0  0  0  0  0  0  0  0  0  0  0
   52.7070   50.0730   19.3410 C   0  0  0  0  0  0  0  0  0  0  0  0
   51.6830   50.5490   20.3730 C   0  0  0  0  0  0  0  0  0  0  0  0
  1 15  1  6  0  0  0
  1  8  1  0  0  0  0
  1  2  1  0  0  0  0
  1 12  1  0  0  0  0
  2  7  2  0  0  0  0
  3  4  2  0  0  0  0
  3  2  1  0  0  0  0
  4  5  1  0  0  0  0
  5  6  2  0  0  0  0
  7  6  1  0  0  0  0
  8 11  1  0  0  0  0
  8  9  1  0  0  0  0
 10  8  1  0  0  0  0
 12 14  2  0  0  0  0
 12 13  1  0  0  0  0
 15 16  1  0  0  0  0
 16 17  1  0  0  0  0
 18 16  1  0  0  0  0
 19 20  1  0  0  0  0
 20 18  1  0  0  0  0
 21 16  1  0  0  0  0
 21 22  1  0  0  0  0
 22 24  1  0  0  0  0
 23 22  1  0  0  0  0
 23 24  1  0  0  0  0
M  END
>  <MODEL>
7

>  <REMARK>
  Name = ZINC45276737
                            x       y       z     vdW  Elec       q    Type
                         _______ _______ _______ _____ _____    ______ ____

>  <TORSDO>
F 9

>  <minimizedAffinity>
-5.952759972302907

$$$$
ZINC45276737
 OpenBabel10211214433D

 24 25  0  0  1  0  0  0  0  0999 V2000
   51.7900   52.1870   19.1760 C   0  0  1  0  0  0  0  0  0  0  0  0
   51.8310   53.3660   20.1150 C   0  0  0  0  0  0  0  0  0  0  0  0
   52.4280   54.5470   19.7150 C   0  0  0  0  0  0  0  0  0  0  0  0
   52.4650   55.6280   20.5750 C   0  0  0  0  0  0  0  0  0  0  0  0
   51.9040   55.5280   21.8350 C   0  0  0  0  0  0  0  0  0  0  0  0
   51.3050   54.3480   22.2340 C   0  0  0  0  0  0  0  0  0  0  0  0
   51.2650   53.2680   21.3720 C   0  0  0  0  0  0  0  0  0  0  0  0
   52.3990   52.5610   17.8930 N   0  0  0  0  0  0  0  0  0  0  0  0
   53.4030   52.5920   17.9930 H   0  0  0  0  0  0  0  0  0  0  0  0
   52.0590   53.4680   17.6110 H   0  0  0  0  0  0  0  0  0  0  0  0
   52.1530   51.8780   17.1920 H   0  0  0  0  0  0  0  0  0  0  0  0
   52.5570   51.0380   19.7810 C   0  0  0  0  0  0  0  0  0  0  0  0
   52.9730   50.1410   19.0690 O   0  0  0  0  0  0  0  0  0  0  0  0
   52.7620   51.0090   20.9830 O   0  0  0  0  0  0  0  0  0  0  0  0
   50.3370   51.7660   18.9480 C   0  0  0  0  0  0  0  0  0  0  0  0
   49.8110   52.4470   17.7580 N   0  0  0  0  0  0  0  0  0  0  0  0
   50.5540   52.9610   17.3080 H   0  0  0  0  0  0  0  0  0  0  0  0
   49.2700   51.4510   16.8220 C   0  0  0  0  0  0  0  0  0  0  0  0
   47.1080   50.2440   17.1570 C   0  0  0  0  0  0  0  0  0  0  0  0
   47.7460   51.5800   16.7680 C   0  0  0  0  0  0  0  0  0  0  0  0
   48.7450   53.3750   18.1550 C   0  0  0  0  0  0  0  0  0  0  0  0
   49.3500   54.7460   18.4620 C   0  0  0  0  0  0  0  0  0  0  0  0
   48.7140   55.5640   19.5870 C   0  0  0  0  0  0  0  0  0  0  0  0
   48.5090   55.9810   18.1300 C   0  0  0  0  0  0  0  0  0  0  0  0
  1  8  1  6  0  0  0
  1 12  1  0  0  0  0
  1  2  1  0  0  0  0
  2  7  1  0  0  0  0
  3  2  2  0  0  0  0
  3  4  1  0  0  0  0
  4  5  2  0  0  0  0
  5  6  1  0  0  0  0
  7  6  2  0  0  0  0
  8  9  1  0  0  0  0
 10  8  1  0  0  0  0
 11  8  1  0  0  0  0
 12 14  1  0  0  0  0
 13 12  2  0  0  0  0
 15  1  1  0  0  0  0
 16 21  1  0  0  0  0
 16 15  1  0  0  0  0
 17 16  1  0  0  0  0
 18 16  1  0  0  0  0
 20 18  1  0  0  0  0
 20 19  1  0  0  0  0
 21 22  1  0  0  0  0
 22 23  1  0  0  0  0
 24 22  1  0  0  0  0
 24 23  1  0  0  0  0
M  END
>  <MODEL>
8

>  <REMARK>
  Name = ZINC45276737
                            x       y       z     vdW  Elec       q    Type
                         _______ _______ _______ _____ _____    ______ ____

>  <TORSDO>
F 9

>  <minimizedAffinity>
-5.8809713432172783

$$$$
ZINC45276737
 OpenBabel10211214433D

 24 25  0  0  1  0  0  0  0  0999 V2000
   50.3390   54.9220   19.7370 C   0  0  1  0  0  0  0  0  0  0  0  0
   50.7310   53.5600   20.2500 C   0  0  0  0  0  0  0  0  0  0  0  0
   51.3830   53.4390   21.4630 C   0  0  0  0  0  0  0  0  0  0  0  0
   51.7420   52.1910   21.9330 C   0  0  0  0  0  0  0  0  0  0  0  0
   51.4490   51.0610   21.1910 C   0  0  0  0  0  0  0  0  0  0  0  0
   50.7950   51.1820   19.9790 C   0  0  0  0  0  0  0  0  0  0  0  0
   50.4320   52.4310   19.5110 C   0  0  0  0  0  0  0  0  0  0  0  0
   51.3530   55.3980   18.7870 N   0  0  0  0  0  0  0  0  0  0  0  0
   50.9480   55.4560   17.8640 H   0  0  0  0  0  0  0  0  0  0  0  0
   52.1300   54.7540   18.7740 H   0  0  0  0  0  0  0  0  0  0  0  0
   51.6770   56.3100   19.0690 H   0  0  0  0  0  0  0  0  0  0  0  0
   49.0030   54.8320   19.0450 C   0  0  0  0  0  0  0  0  0  0  0  0
   47.9850   54.6910   19.7000 O   0  0  0  0  0  0  0  0  0  0  0  0
   48.9420   54.9020   17.8290 O   0  0  0  0  0  0  0  0  0  0  0  0
   50.2410   55.9000   20.9100 C   0  0  0  0  0  0  0  0  0  0  0  0
   50.7270   57.2200   20.4880 N   0  0  0  0  0  0  0  0  0  0  0  0
   51.2520   57.1280   19.6320 H   0  0  0  0  0  0  0  0  0  0  0  0
   49.5830   58.1160   20.2670 C   0  0  0  0  0  0  0  0  0  0  0  0
   47.1190   57.9780   20.6530 C   0  0  0  0  0  0  0  0  0  0  0  0
   48.4950   57.8180   21.3010 C   0  0  0  0  0  0  0  0  0  0  0  0
   51.5920   57.7810   21.5340 C   0  0  0  0  0  0  0  0  0  0  0  0
   52.9730   57.1300   21.4580 C   0  0  0  0  0  0  0  0  0  0  0  0
   54.1310   57.8430   22.1590 C   0  0  0  0  0  0  0  0  0  0  0  0
   54.0470   57.8420   20.6320 C   0  0  0  0  0  0  0  0  0  0  0  0
  1  8  1  6  0  0  0
  1  2  1  0  0  0  0
  1 15  1  0  0  0  0
  2  3  2  0  0  0  0
  3  4  1  0  0  0  0
  5  4  2  0  0  0  0
  6  5  1  0  0  0  0
  7  6  2  0  0  0  0
  7  2  1  0  0  0  0
  8 11  1  0  0  0  0
  9  8  1  0  0  0  0
 10  8  1  0  0  0  0
 12 13  1  0  0  0  0
 12  1  1  0  0  0  0
 14 12  2  0  0  0  0
 16 15  1  0  0  0  0
 16 21  1  0  0  0  0
 17 16  1  0  0  0  0
 18 16  1  0  0  0  0
 18 20  1  0  0  0  0
 19 20  1  0  0  0  0
 22 21  1  0  0  0  0
 22 23  1  0  0  0  0
 24 22  1  0  0  0  0
 24 23  1  0  0  0  0
M  END
>  <MODEL>
9

>  <REMARK>
  Name = ZINC45276737
                            x       y       z     vdW  Elec       q    Type
                         _______ _______ _______ _____ _____    ______ ____

>  <TORSDO>
F 9

>  <minimizedAffinity>
-5.72391515585824

$$$$
ZINC62530550
 OpenBabel10211214443D

 23 23  0  0  1  0  0  0  0  0999 V2000
   50.3220   52.4320   18.1890 C   0  0  0  0  0  0  0  0  0  0  0  0
   50.4730   53.4070   19.2770 N   0  0  0  0  0  0  0  0  0  0  0  0
   50.4040   52.9320   20.1650 H   0  0  0  0  0  0  0  0  0  0  0  0
   51.7870   54.0540   19.1730 C   0  0  0  0  0  0  0  0  0  0  0  0
   51.9820   55.0120   20.3510 C   0  0  0  0  0  0  0  0  0  0  0  0
   50.8820   56.0770   20.3230 C   0  0  1  0  0  0  0  0  0  0  0  0
   49.5160   55.3880   20.3560 C   0  0  0  0  0  0  0  0  0  0  0  0
   49.4120   54.4160   19.1790 C   0  0  0  0  0  0  0  0  0  0  0  0
   51.0250   56.9920   21.5410 C   0  0  0  0  0  0  0  0  0  0  0  0
   49.6740   57.6380   21.8550 C   0  0  0  0  0  0  0  0  0  0  0  0
   52.0540   58.0830   21.2420 C   0  0  0  0  0  0  0  0  0  0  0  0
   51.4880   56.1690   22.7450 C   0  0  0  0  0  0  0  0  0  0  0  0
   51.5990   51.5950   18.0730 C   0  0  0  0  0  0  0  0  0  0  0  0
   51.3820   50.2400   18.7490 C   0  0  1  0  0  0  0  0  0  0  0  0
   52.4710   50.0070   19.7640 C   0  0  0  0  0  0  0  0  0  0  0  0
   52.9360   48.7600   19.9820 N   0  0  0  0  0  0  0  0  0  0  0  0
   53.6360   48.6110   20.6360 H   0  0  0  0  0  0  0  0  0  0  0  0
   52.5690   48.0130   19.4840 H   0  0  0  0  0  0  0  0  0  0  0  0
   52.9290   50.9420   20.3870 O   0  0  0  0  0  0  0  0  0  0  0  0
   50.0760   50.2290   19.4200 N   0  0  0  0  0  0  0  0  0  0  0  0
   49.5110   51.0120   19.1240 H   0  0  0  0  0  0  0  0  0  0  0  0
   48.0620   49.2270   18.4530 C   0  0  0  0  0  0  0  0  0  0  0  0
   49.3760   48.9590   19.1890 C   0  0  0  0  0  0  0  0  0  0  0  0
  1  2  1  0  0  0  0
  2  3  1  0  0  0  0
  4  2  1  0  0  0  0
  4  5  1  0  0  0  0
  6  5  1  0  0  0  0
  6  7  1  0  0  0  0
  6  9  1  1  0  0  0
  8  2  1  0  0  0  0
  8  7  1  0  0  0  0
  9 10  1  0  0  0  0
  9 12  1  0  0  0  0
 11  9  1  0  0  0  0
 13  1  1  0  0  0  0
 14 13  1  1  0  0  0
 14 20  1  0  0  0  0
 14 15  1  0  0  0  0
 15 16  1  0  0  0  0
 15 19  2  0  0  0  0
 16 17  1  0  0  0  0
 18 16  1  0  0  0  0
 21 20  1  0  0  0  0
 22 23  1  0  0  0  0
 23 20  1  0  0  0  0
M  END
>  <MODEL>
1

>  <REMARK>
  Name = ZINC62530550
                            x       y       z     vdW  Elec       q    Type
                         _______ _______ _______ _____ _____    ______ ____

>  <TORSDO>
F 7

>  <minimizedAffinity>
-6.9035251778581594

$$$$
ZINC62530550
 OpenBabel10211214443D

 23 23  0  0  1  0  0  0  0  0999 V2000
   51.6510   54.0440   21.3140 C   0  0  0  0  0  0  0  0  0  0  0  0
   50.6930   53.2940   20.4910 N   0  0  0  0  0  0  0  0  0  0  0  0
   49.8530   53.1230   21.0260 H   0  0  0  0  0  0  0  0  0  0  0  0
   50.3570   54.0790   19.2970 C   0  0  0  0  0  0  0  0  0  0  0  0
   49.2970   53.3400   18.4770 C   0  0  0  0  0  0  0  0  0  0  0  0
   49.8470   51.9740   18.0550 C   0  0  1  0  0  0  0  0  0  0  0  0
   50.2630   51.1930   19.3050 C   0  0  0  0  0  0  0  0  0  0  0  0
   51.2870   52.0120   20.0940 C   0  0  0  0  0  0  0  0  0  0  0  0
   48.7660   51.1970   17.3020 C   0  0  0  0  0  0  0  0  0  0  0  0
   47.5200   52.0720   17.1530 C   0  0  0  0  0  0  0  0  0  0  0  0
   48.4090   49.9320   18.0840 C   0  0  0  0  0  0  0  0  0  0  0  0
   49.2860   50.8110   15.9170 C   0  0  0  0  0  0  0  0  0  0  0  0
   51.6630   55.5100   20.8770 C   0  0  0  0  0  0  0  0  0  0  0  0
   51.9480   56.4010   22.0870 C   0  0  1  0  0  0  0  0  0  0  0  0
   53.0120   57.4060   21.7300 C   0  0  0  0  0  0  0  0  0  0  0  0
   52.9380   58.6650   22.2060 N   0  0  0  0  0  0  0  0  0  0  0  0
   53.6230   59.3120   21.9750 H   0  0  0  0  0  0  0  0  0  0  0  0
   52.2000   58.9240   22.7790 H   0  0  0  0  0  0  0  0  0  0  0  0
   53.9350   57.0830   21.0120 O   0  0  0  0  0  0  0  0  0  0  0  0
   50.7200   57.1050   22.4780 N   0  0  0  0  0  0  0  0  0  0  0  0
   50.9220   58.0520   22.7640 H   0  0  0  0  0  0  0  0  0  0  0  0
   48.6890   58.1780   21.6280 C   0  0  0  0  0  0  0  0  0  0  0  0
   49.7320   57.0840   21.3910 C   0  0  0  0  0  0  0  0  0  0  0  0
  2  3  1  0  0  0  0
  2  1  1  0  0  0  0
  4  2  1  0  0  0  0
  5  4  1  0  0  0  0
  6  9  1  1  0  0  0
  6  5  1  0  0  0  0
  6  7  1  0  0  0  0
  7  8  1  0  0  0  0
  8  2  1  0  0  0  0
  9 11  1  0  0  0  0
 10  9  1  0  0  0  0
 12  9  1  0  0  0  0
 13  1  1  0  0  0  0
 14 13  1  6  0  0  0
 14 20  1  0  0  0  0
 15 14  1  0  0  0  0
 15 16  1  0  0  0  0
 16 18  1  0  0  0  0
 17 16  1  0  0  0  0
 19 15  2  0  0  0  0
 20 21  1  0  0  0  0
 23 22  1  0  0  0  0
 23 20  1  0  0  0  0
M  END
>  <MODEL>
2

>  <REMARK>
  Name = ZINC62530550
                            x       y       z     vdW  Elec       q    Type
                         _______ _______ _______ _____ _____    ______ ____

>  <TORSDO>
F 7

>  <minimizedAffinity>
-6.7632080296621817

$$$$
ZINC62530550
 OpenBabel10211214443D

 23 23  0  0  1  0  0  0  0  0999 V2000
   50.1290   51.9720   17.8540 C   0  0  0  0  0  0  0  0  0  0  0  0
   49.1840   50.8740   17.6080 N   0  0  0  0  0  0  0  0  0  0  0  0
   49.1070   50.3040   18.4380 H   0  0  0  0  0  0  0  0  0  0  0  0
   47.8660   51.4300   17.2760 C   0  0  0  0  0  0  0  0  0  0  0  0
   46.8590   50.2920   17.0980 C   0  0  0  0  0  0  0  0  0  0  0  0
   47.3280   49.3740   15.9660 C   0  0  1  0  0  0  0  0  0  0  0  0
   48.7340   48.8590   16.2870 C   0  0  0  0  0  0  0  0  0  0  0  0
   49.6720   50.0500   16.4960 C   0  0  0  0  0  0  0  0  0  0  0  0
   46.3670   48.1900   15.8340 C   0  0  0  0  0  0  0  0  0  0  0  0
   45.0980   48.4730   16.6400 C   0  0  0  0  0  0  0  0  0  0  0  0
   47.0400   46.9250   16.3700 C   0  0  0  0  0  0  0  0  0  0  0  0
   46.0020   47.9910   14.3620 C   0  0  0  0  0  0  0  0  0  0  0  0
   51.4730   51.3970   18.3080 C   0  0  0  0  0  0  0  0  0  0  0  0
   51.3660   50.9420   19.7650 C   0  0  1  0  0  0  0  0  0  0  0  0
   51.4920   49.4420   19.8320 C   0  0  0  0  0  0  0  0  0  0  0  0
   52.7050   48.8720   19.9770 N   0  0  0  0  0  0  0  0  0  0  0  0
   52.7850   47.9070   20.0190 H   0  0  0  0  0  0  0  0  0  0  0  0
   53.4970   49.4290   20.0380 H   0  0  0  0  0  0  0  0  0  0  0  0
   50.5010   48.7470   19.7560 O   0  0  0  0  0  0  0  0  0  0  0  0
   52.4430   51.5600   20.5510 N   0  0  0  0  0  0  0  0  0  0  0  0
   52.9170   52.2730   20.0160 H   0  0  0  0  0  0  0  0  0  0  0  0
   50.7740   53.0680   21.5180 C   0  0  0  0  0  0  0  0  0  0  0  0
   51.9260   52.1050   21.8130 C   0  0  0  0  0  0  0  0  0  0  0  0
  1 13  1  0  0  0  0
  2  1  1  0  0  0  0
  2  3  1  0  0  0  0
  4  2  1  0  0  0  0
  5  4  1  0  0  0  0
  6  9  1  1  0  0  0
  6  7  1  0  0  0  0
  6  5  1  0  0  0  0
  7  8  1  0  0  0  0
  8  2  1  0  0  0  0
  9 11  1  0  0  0  0
  9 10  1  0  0  0  0
 12  9  1  0  0  0  0
 14 13  1  6  0  0  0
 14 15  1  0  0  0  0
 14 20  1  0  0  0  0
 15 16  1  0  0  0  0
 16 17  1  0  0  0  0
 16 18  1  0  0  0  0
 19 15  2  0  0  0  0
 20 23  1  0  0  0  0
 21 20  1  0  0  0  0
 22 23  1  0  0  0  0
M  END
>  <MODEL>
3

>  <REMARK>
  Name = ZINC62530550
                            x       y       z     vdW  Elec       q    Type
                         _______ _______ _______ _____ _____    ______ ____

>  <TORSDO>
F 7

>  <minimizedAffinity>
-6.6581200810600087

$$$$
ZINC62530550
 OpenBabel10211214443D

 23 23  0  0  1  0  0  0  0  0999 V2000
   51.6800   51.9770   21.3190 C   0  0  0  0  0  0  0  0  0  0  0  0
   51.4480   53.3970   21.0210 N   0  0  0  0  0  0  0  0  0  0  0  0
   52.1140   53.7080   20.3290 H   0  0  0  0  0  0  0  0  0  0  0  0
   50.0870   53.5680   20.4970 C   0  0  0  0  0  0  0  0  0  0  0  0
   49.8670   55.0320   20.1090 C   0  0  0  0  0  0  0  0  0  0  0  0
   50.0560   55.9170   21.3450 C   0  0  1  0  0  0  0  0  0  0  0  0
   51.4520   55.6740   21.9260 C   0  0  0  0  0  0  0  0  0  0  0  0
   51.6130   54.1870   22.2470 C   0  0  0  0  0  0  0  0  0  0  0  0
   49.9150   57.3880   20.9470 C   0  0  0  0  0  0  0  0  0  0  0  0
   49.0750   57.4930   19.6730 C   0  0  0  0  0  0  0  0  0  0  0  0
   51.3010   57.9830   20.6940 C   0  0  0  0  0  0  0  0  0  0  0  0
   49.2280   58.1570   22.0760 C   0  0  0  0  0  0  0  0  0  0  0  0
   50.7940   51.1150   20.4180 C   0  0  0  0  0  0  0  0  0  0  0  0
   51.6360   50.5360   19.2790 C   0  0  1  0  0  0  0  0  0  0  0  0
   52.5600   49.4800   19.8260 C   0  0  0  0  0  0  0  0  0  0  0  0
   52.0560   48.3340   20.3250 N   0  0  0  0  0  0  0  0  0  0  0  0
   52.6510   47.6550   20.6770 H   0  0  0  0  0  0  0  0  0  0  0  0
   51.0970   48.1890   20.3320 H   0  0  0  0  0  0  0  0  0  0  0  0
   53.7600   49.6610   19.8180 O   0  0  0  0  0  0  0  0  0  0  0  0
   50.7510   49.9380   18.2700 N   0  0  0  0  0  0  0  0  0  0  0  0
   50.9220   48.9470   18.1820 H   0  0  0  0  0  0  0  0  0  0  0  0
   48.5620   48.8870   18.5790 C   0  0  0  0  0  0  0  0  0  0  0  0
   49.3410   50.2040   18.5830 C   0  0  0  0  0  0  0  0  0  0  0  0
  2  1  1  0  0  0  0
  2  8  1  0  0  0  0
  3  2  1  0  0  0  0
  4  2  1  0  0  0  0
  5  4  1  0  0  0  0
  5  6  1  0  0  0  0
  6  9  1  6  0  0  0
  6  7  1  0  0  0  0
  7  8  1  0  0  0  0
  9 12  1  0  0  0  0
 10  9  1  0  0  0  0
 11  9  1  0  0  0  0
 13  1  1  0  0  0  0
 14 20  1  1  0  0  0
 14 15  1  0  0  0  0
 14 13  1  0  0  0  0
 15 16  1  0  0  0  0
 16 18  1  0  0  0  0
 16 17  1  0  0  0  0
 19 15  2  0  0  0  0
 20 23  1  0  0  0  0
 21 20  1  0  0  0  0
 22 23  1  0  0  0  0
M  END
>  <MODEL>
4

>  <REMARK>
  Name = ZINC62530550
                            x       y       z     vdW  Elec       q    Type
                         _______ _______ _______ _____ _____    ______ ____

>  <TORSDO>
F 7

>  <minimizedAffinity>
-6.561901093196731

$$$$
ZINC62530550
 OpenBabel10211214443D

 23 23  0  0  1  0  0  0  0  0999 V2000
   50.7050   53.2970   18.3110 C   0  0  0  0  0  0  0  0  0  0  0  0
   49.6340   52.2920   18.3570 N   0  0  0  0  0  0  0  0  0  0  0  0
   49.0730   52.4370   19.1830 H   0  0  0  0  0  0  0  0  0  0  0  0
   48.7870   52.4270   17.1650 C   0  0  0  0  0  0  0  0  0  0  0  0
   47.6230   51.4370   17.2460 C   0  0  0  0  0  0  0  0  0  0  0  0
   48.1770   50.0110   17.3230 C   0  0  1  0  0  0  0  0  0  0  0  0
   49.1170   49.9030   18.5270 C   0  0  0  0  0  0  0  0  0  0  0  0
   50.2260   50.9500   18.3980 C   0  0  0  0  0  0  0  0  0  0  0  0
   47.0220   49.0210   17.4840 C   0  0  0  0  0  0  0  0  0  0  0  0
   47.0510   48.4290   18.8950 C   0  0  0  0  0  0  0  0  0  0  0  0
   47.1660   47.8970   16.4570 C   0  0  0  0  0  0  0  0  0  0  0  0
   45.6940   49.7470   17.2630 C   0  0  0  0  0  0  0  0  0  0  0  0
   51.5350   53.2170   19.5940 C   0  0  0  0  0  0  0  0  0  0  0  0
   50.8080   53.9600   20.7180 C   0  0  1  0  0  0  0  0  0  0  0  0
   51.5150   53.7070   22.0240 C   0  0  0  0  0  0  0  0  0  0  0  0
   51.7350   52.4430   22.4390 N   0  0  0  0  0  0  0  0  0  0  0  0
   52.1890   52.2810   23.2800 H   0  0  0  0  0  0  0  0  0  0  0  0
   51.4370   51.6960   21.8960 H   0  0  0  0  0  0  0  0  0  0  0  0
   51.8860   54.6410   22.7030 O   0  0  0  0  0  0  0  0  0  0  0  0
   50.8060   55.4010   20.4320 N   0  0  0  0  0  0  0  0  0  0  0  0
   51.2040   55.5900   19.5240 H   0  0  0  0  0  0  0  0  0  0  0  0
   49.4760   57.1900   21.4460 C   0  0  0  0  0  0  0  0  0  0  0  0
   49.4510   55.9570   20.5400 C   0  0  0  0  0  0  0  0  0  0  0  0
  1  2  1  0  0  0  0
  1 13  1  0  0  0  0
  2  8  1  0  0  0  0
  2  3  1  0  0  0  0
  4  5  1  0  0  0  0
  4  2  1  0  0  0  0
  5  6  1  0  0  0  0
  6  9  1  1  0  0  0
  6  7  1  0  0  0  0
  8  7  1  0  0  0  0
  9 10  1  0  0  0  0
 11  9  1  0  0  0  0
 12  9  1  0  0  0  0
 14 13  1  6  0  0  0
 14 15  1  0  0  0  0
 15 16  1  0  0  0  0
 15 19  2  0  0  0  0
 16 17  1  0  0  0  0
 18 16  1  0  0  0  0
 20 23  1  0  0  0  0
 20 14  1  0  0  0  0
 21 20  1  0  0  0  0
 23 22  1  0  0  0  0
M  END
>  <MODEL>
5

>  <REMARK>
  Name = ZINC62530550
                            x       y       z     vdW  Elec       q    Type
                         _______ _______ _______ _____ _____    ______ ____

>  <TORSDO>
F 7

>  <minimizedAffinity>
-6.4632853700593387

$$$$
ZINC62530550
 OpenBabel10211214443D

 23 23  0  0  1  0  0  0  0  0999 V2000
   50.9810   52.9690   18.4900 C   0  0  0  0  0  0  0  0  0  0  0  0
   50.3310   54.0670   19.2200 N   0  0  0  0  0  0  0  0  0  0  0  0
   50.3590   53.8740   20.2110 H   0  0  0  0  0  0  0  0  0  0  0  0
   51.0440   55.3210   18.9490 C   0  0  0  0  0  0  0  0  0  0  0  0
   50.4220   56.4530   19.7700 C   0  0  0  0  0  0  0  0  0  0  0  0
   48.9480   56.6070   19.3830 C   0  0  1  0  0  0  0  0  0  0  0  0
   48.2310   55.2710   19.6000 C   0  0  0  0  0  0  0  0  0  0  0  0
   48.9340   54.1830   18.7850 C   0  0  0  0  0  0  0  0  0  0  0  0
   48.2990   57.6830   20.2560 C   0  0  0  0  0  0  0  0  0  0  0  0
   46.8600   57.2770   20.5820 C   0  0  0  0  0  0  0  0  0  0  0  0
   48.2940   59.0150   19.5030 C   0  0  0  0  0  0  0  0  0  0  0  0
   49.0930   57.8340   21.5540 C   0  0  0  0  0  0  0  0  0  0  0  0
   50.4810   51.6290   19.0340 C   0  0  0  0  0  0  0  0  0  0  0  0
   51.4940   51.0780   20.0400 C   0  0  1  0  0  0  0  0  0  0  0  0
   52.4580   50.1630   19.3300 C   0  0  0  0  0  0  0  0  0  0  0  0
   52.8170   48.9920   19.8930 N   0  0  0  0  0  0  0  0  0  0  0  0
   53.4380   48.4040   19.4360 H   0  0  0  0  0  0  0  0  0  0  0  0
   52.4540   48.7390   20.7560 H   0  0  0  0  0  0  0  0  0  0  0  0
   52.9120   50.4810   18.2510 O   0  0  0  0  0  0  0  0  0  0  0  0
   52.2340   52.1910   20.6500 N   0  0  0  0  0  0  0  0  0  0  0  0
   52.1380   53.0330   20.1020 H   0  0  0  0  0  0  0  0  0  0  0  0
   51.6110   53.9120   22.2760 C   0  0  0  0  0  0  0  0  0  0  0  0
   51.8010   52.4130   22.0360 C   0  0  0  0  0  0  0  0  0  0  0  0
  1 13  1  0  0  0  0
  1  2  1  0  0  0  0
  2  3  1  0  0  0  0
  4  2  1  0  0  0  0
  4  5  1  0  0  0  0
  6  7  1  0  0  0  0
  6  5  1  0  0  0  0
  6  9  1  1  0  0  0
  8  2  1  0  0  0  0
  8  7  1  0  0  0  0
  9 10  1  0  0  0  0
  9 12  1  0  0  0  0
 11  9  1  0  0  0  0
 14 13  1  6  0  0  0
 14 20  1  0  0  0  0
 15 16  1  0  0  0  0
 15 14  1  0  0  0  0
 16 18  1  0  0  0  0
 17 16  1  0  0  0  0
 19 15  2  0  0  0  0
 20 23  1  0  0  0  0
 21 20  1  0  0  0  0
 23 22  1  0  0  0  0
M  END
>  <MODEL>
6

>  <REMARK>
  Name = ZINC62530550
                            x       y       z     vdW  Elec       q    Type
                         _______ _______ _______ _____ _____    ______ ____

>  <TORSDO>
F 7

>  <minimizedAffinity>
-6.3538836206961378

$$$$
ZINC62530550
 OpenBabel10211214443D

 23 23  0  0  1  0  0  0  0  0999 V2000
   51.9070   54.2150   20.6080 C   0  0  0  0  0  0  0  0  0  0  0  0
   50.8400   53.4480   19.9520 N   0  0  0  0  0  0  0  0  0  0  0  0
   50.0480   53.3740   20.5740 H   0  0  0  0  0  0  0  0  0  0  0  0
   50.4290   54.1370   18.7220 C   0  0  0  0  0  0  0  0  0  0  0  0
   49.2630   53.3840   18.0770 C   0  0  0  0  0  0  0  0  0  0  0  0
   49.7070   51.9570   17.7410 C   0  0  1  0  0  0  0  0  0  0  0  0
   50.2030   51.2730   19.0180 C   0  0  0  0  0  0  0  0  0  0  0  0
   51.3340   52.1040   19.6290 C   0  0  0  0  0  0  0  0  0  0  0  0
   48.5230   51.1750   17.1680 C   0  0  0  0  0  0  0  0  0  0  0  0
   48.2530   49.9470   18.0400 C   0  0  0  0  0  0  0  0  0  0  0  0
   48.8500   50.7270   15.7430 C   0  0  0  0  0  0  0  0  0  0  0  0
   47.2820   52.0690   17.1500 C   0  0  0  0  0  0  0  0  0  0  0  0
   51.3220   54.9980   21.7860 C   0  0  0  0  0  0  0  0  0  0  0  0
   51.3320   56.4930   21.4610 C   0  0  1  0  0  0  0  0  0  0  0  0
   49.9290   57.0340   21.5510 C   0  0  0  0  0  0  0  0  0  0  0  0
   49.6740   58.1260   22.2990 N   0  0  0  0  0  0  0  0  0  0  0  0
   48.7710   58.4740   22.3570 H   0  0  0  0  0  0  0  0  0  0  0  0
   50.3940   58.5640   22.7790 H   0  0  0  0  0  0  0  0  0  0  0  0
   49.0280   56.4870   20.9510 O   0  0  0  0  0  0  0  0  0  0  0  0
   52.1920   57.1980   22.4200 N   0  0  0  0  0  0  0  0  0  0  0  0
   52.7340   56.5450   22.9670 H   0  0  0  0  0  0  0  0  0  0  0  0
   53.8550   57.4440   20.6400 C   0  0  0  0  0  0  0  0  0  0  0  0
   53.0640   58.1610   21.7360 C   0  0  0  0  0  0  0  0  0  0  0  0
  1 13  1  0  0  0  0
  2  3  1  0  0  0  0
  2  1  1  0  0  0  0
  4  2  1  0  0  0  0
  5  4  1  0  0  0  0
  6  9  1  1  0  0  0
  6  5  1  0  0  0  0
  6  7  1  0  0  0  0
  7  8  1  0  0  0  0
  8  2  1  0  0  0  0
  9 10  1  0  0  0  0
 11  9  1  0  0  0  0
 12  9  1  0  0  0  0
 14 15  1  1  0  0  0
 14 13  1  0  0  0  0
 14 20  1  0  0  0  0
 15 16  1  0  0  0  0
 16 17  1  0  0  0  0
 16 18  1  0  0  0  0
 19 15  2  0  0  0  0
 20 21  1  0  0  0  0
 22 23  1  0  0  0  0
 23 20  1  0  0  0  0
M  END
>  <MODEL>
7

>  <REMARK>
  Name = ZINC62530550
                            x       y       z     vdW  Elec       q    Type
                         _______ _______ _______ _____ _____    ______ ____

>  <TORSDO>
F 7

>  <minimizedAffinity>
-6.3080580330430145

$$$$
ZINC62530550
 OpenBabel10211214443D

 23 23  0  0  1  0  0  0  0  0999 V2000
   51.0410   53.5560   18.7170 C   0  0  0  0  0  0  0  0  0  0  0  0
   50.3420   52.4710   18.0170 N   0  0  0  0  0  0  0  0  0  0  0  0
   50.8630   52.2140   17.1910 H   0  0  0  0  0  0  0  0  0  0  0  0
   50.2340   51.3070   18.9050 C   0  0  0  0  0  0  0  0  0  0  0  0
   49.5790   50.1460   18.1530 C   0  0  0  0  0  0  0  0  0  0  0  0
   48.1810   50.5690   17.6900 C   0  0  1  0  0  0  0  0  0  0  0  0
   48.2990   51.8270   16.8250 C   0  0  0  0  0  0  0  0  0  0  0  0
   49.0020   52.9250   17.6260 C   0  0  0  0  0  0  0  0  0  0  0  0
   47.5510   49.4410   16.8700 C   0  0  0  0  0  0  0  0  0  0  0  0
   47.8420   49.6660   15.3850 C   0  0  0  0  0  0  0  0  0  0  0  0
   46.0380   49.4290   17.0970 C   0  0  0  0  0  0  0  0  0  0  0  0
   48.1430   48.1000   17.3080 C   0  0  0  0  0  0  0  0  0  0  0  0
   50.3530   53.8250   20.0580 C   0  0  0  0  0  0  0  0  0  0  0  0
   51.1360   54.8910   20.8270 C   0  0  1  0  0  0  0  0  0  0  0  0
   51.5820   54.3260   22.1510 C   0  0  0  0  0  0  0  0  0  0  0  0
   51.6400   52.9910   22.3300 N   0  0  0  0  0  0  0  0  0  0  0  0
   51.9270   52.6280   23.1820 H   0  0  0  0  0  0  0  0  0  0  0  0
   51.3940   52.3940   21.6060 H   0  0  0  0  0  0  0  0  0  0  0  0
   51.8890   55.0730   23.0560 O   0  0  0  0  0  0  0  0  0  0  0  0
   52.3120   55.2950   20.0460 N   0  0  0  0  0  0  0  0  0  0  0  0
   52.3060   54.8620   19.1340 H   0  0  0  0  0  0  0  0  0  0  0  0
   53.6160   57.2630   20.6960 C   0  0  0  0  0  0  0  0  0  0  0  0
   52.3900   56.7580   19.9330 C   0  0  0  0  0  0  0  0  0  0  0  0
  1 13  1  0  0  0  0
  2  1  1  0  0  0  0
  2  4  1  0  0  0  0
  3  2  1  0  0  0  0
  5  4  1  0  0  0  0
  6  9  1  6  0  0  0
  6  5  1  0  0  0  0
  7  8  1  0  0  0  0
  7  6  1  0  0  0  0
  8  2  1  0  0  0  0
  9 11  1  0  0  0  0
  9 12  1  0  0  0  0
 10  9  1  0  0  0  0
 13 14  1  0  0  0  0
 14 20  1  6  0  0  0
 14 15  1  0  0  0  0
 15 16  1  0  0  0  0
 15 19  2  0  0  0  0
 16 17  1  0  0  0  0
 18 16  1  0  0  0  0
 21 20  1  0  0  0  0
 23 20  1  0  0  0  0
 23 22  1  0  0  0  0
M  END
>  <MODEL>
8

>  <REMARK>
  Name = ZINC62530550
                            x       y       z     vdW  Elec       q    Type
                         _______ _______ _______ _____ _____    ______ ____

>  <TORSDO>
F 7

>  <minimizedAffinity>
-6.2992518872669834

$$$$
ZINC62530550
 OpenBabel10211214443D

 23 23  0  0  1  0  0  0  0  0999 V2000
   49.4200   52.7130   17.9310 C   0  0  0  0  0  0  0  0  0  0  0  0
   49.7470   53.6080   19.0500 N   0  0  0  0  0  0  0  0  0  0  0  0
   49.5730   53.1310   19.9230 H   0  0  0  0  0  0  0  0  0  0  0  0
   51.1640   53.9850   18.9750 C   0  0  0  0  0  0  0  0  0  0  0  0
   51.5290   54.8510   20.1830 C   0  0  0  0  0  0  0  0  0  0  0  0
   50.6620   56.1140   20.1800 C   0  0  1  0  0  0  0  0  0  0  0  0
   49.1850   55.7070   20.1830 C   0  0  0  0  0  0  0  0  0  0  0  0
   48.9070   54.8090   18.9750 C   0  0  0  0  0  0  0  0  0  0  0  0
   50.9660   56.9470   21.4260 C   0  0  0  0  0  0  0  0  0  0  0  0
   51.4620   56.0280   22.5450 C   0  0  0  0  0  0  0  0  0  0  0  0
   49.6950   57.6650   21.8830 C   0  0  0  0  0  0  0  0  0  0  0  0
   52.0460   57.9790   21.0980 C   0  0  0  0  0  0  0  0  0  0  0  0
   50.1030   51.3600   18.1440 C   0  0  0  0  0  0  0  0  0  0  0  0
   49.3370   50.2780   17.3810 C   0  0  1  0  0  0  0  0  0  0  0  0
   49.7880   50.2660   15.9430 C   0  0  0  0  0  0  0  0  0  0  0  0
   51.1030   50.2550   15.6470 N   0  0  0  0  0  0  0  0  0  0  0  0
   51.3920   50.2480   14.7220 H   0  0  0  0  0  0  0  0  0  0  0  0
   51.7600   50.2540   16.3610 H   0  0  0  0  0  0  0  0  0  0  0  0
   48.9660   50.2670   15.0500 O   0  0  0  0  0  0  0  0  0  0  0  0
   49.6040   48.9670   17.9880 N   0  0  0  0  0  0  0  0  0  0  0  0
   49.8720   49.0660   18.9570 H   0  0  0  0  0  0  0  0  0  0  0  0
   47.2640   48.6550   18.6360 C   0  0  0  0  0  0  0  0  0  0  0  0
   48.4430   48.0780   17.8510 C   0  0  0  0  0  0  0  0  0  0  0  0
  1 13  1  0  0  0  0
  1  2  1  0  0  0  0
  2  3  1  0  0  0  0
  4  2  1  0  0  0  0
  4  5  1  0  0  0  0
  6  7  1  0  0  0  0
  6  5  1  0  0  0  0
  6  9  1  1  0  0  0
  8  2  1  0  0  0  0
  8  7  1  0  0  0  0
  9 11  1  0  0  0  0
  9 10  1  0  0  0  0
 12  9  1  0  0  0  0
 14 15  1  6  0  0  0
 14 20  1  0  0  0  0
 14 13  1  0  0  0  0
 16 15  1  0  0  0  0
 16 18  1  0  0  0  0
 17 16  1  0  0  0  0
 19 15  2  0  0  0  0
 20 21  1  0  0  0  0
 23 20  1  0  0  0  0
 23 22  1  0  0  0  0
M  END
>  <MODEL>
9

>  <REMARK>
  Name = ZINC62530550
                            x       y       z     vdW  Elec       q    Type
                         _______ _______ _______ _____ _____    ______ ____

>  <TORSDO>
F 7

>  <minimizedAffinity>
-6.2866959423233535

$$$$
ZINC45109592
 OpenBabel10211214463D

 21 20  0  0  1  0  0  0  0  0999 V2000
   50.4050   48.7990   19.0770 N   0  0  0  0  0  0  0  0  0  0  0  0
   50.3990   47.8810   18.7610 H   0  0  0  0  0  0  0  0  0  0  0  0
   49.6650   49.7340   18.4490 C   0  0  0  0  0  0  0  0  0  0  0  0
   49.6730   50.8790   18.8450 O   0  0  0  0  0  0  0  0  0  0  0  0
   51.2200   49.1670   20.2380 C   0  0  0  0  0  0  0  0  0  0  0  0
   52.5970   49.6360   19.7660 C   0  0  0  0  0  0  0  0  0  0  0  0
   53.0960   50.6320   20.6620 O   0  0  0  0  0  0  0  0  0  0  0  0
   52.0750   51.3730   21.3330 C   0  0  0  0  0  0  0  0  0  0  0  0
   51.9790   52.7740   20.7260 C   0  0  0  0  0  0  0  0  0  0  0  0
   51.5840   54.7240   22.2370 C   0  0  0  0  0  0  0  0  0  0  0  0
   50.9150   53.5810   21.4700 C   0  0  0  0  0  0  0  0  0  0  0  0
   49.9160   54.1580   20.4640 C   0  0  0  0  0  0  0  0  0  0  0  0
   48.8260   49.3540   17.2560 C   0  0  1  0  0  0  0  0  0  0  0  0
   47.3460   49.5280   17.5970 C   0  0  0  0  0  0  0  0  0  0  0  0
   46.9630   48.5590   18.7170 C   0  0  0  0  0  0  0  0  0  0  0  0
   46.4990   49.2340   16.3570 C   0  0  0  0  0  0  0  0  0  0  0  0
   49.1820   50.2430   16.0910 C   0  0  0  0  0  0  0  0  0  0  0  0
   49.7620   49.6030   14.7450 S   0  0  0  0  0  0  0  0  0  0  0  0
   49.0080   51.5770   16.1840 N   0  0  0  0  0  0  0  0  0  0  0  0
   49.7790   52.1610   16.2630 H   0  0  0  0  0  0  0  0  0  0  0  0
   48.1140   51.9510   16.1740 H   0  0  0  0  0  0  0  0  0  0  0  0
  1  5  1  0  0  0  0
  2  1  1  0  0  0  0
  3  4  2  0  0  0  0
  3  1  1  0  0  0  0
  6  5  1  0  0  0  0
  6  7  1  0  0  0  0
  7  8  1  0  0  0  0
  9  8  1  0  0  0  0
  9 11  1  0  0  0  0
 11 10  1  0  0  0  0
 12 11  1  0  0  0  0
 13 17  1  1  0  0  0
 13 14  1  0  0  0  0
 13  3  1  0  0  0  0
 14 15  1  0  0  0  0
 16 14  1  0  0  0  0
 17 19  1  0  0  0  0
 18 17  2  0  0  0  0
 19 20  1  0  0  0  0
 21 19  1  0  0  0  0
M  END
>  <MODEL>
1

>  <REMARK>
  Name = ZINC45109592
                            x       y       z     vdW  Elec       q    Type
                         _______ _______ _______ _____ _____    ______ ____

>  <TORSDO>
F 10

>  <minimizedAffinity>
-6.1048910047534104

$$$$
ZINC45109592
 OpenBabel10211214463D

 21 20  0  0  1  0  0  0  0  0999 V2000
   51.1370   54.8010   19.0900 N   0  0  0  0  0  0  0  0  0  0  0  0
   51.2560   55.4720   18.3990 H   0  0  0  0  0  0  0  0  0  0  0  0
   50.7530   55.1690   20.3280 C   0  0  0  0  0  0  0  0  0  0  0  0
   50.6040   54.3300   21.1910 O   0  0  0  0  0  0  0  0  0  0  0  0
   51.3750   53.3870   18.7870 C   0  0  0  0  0  0  0  0  0  0  0  0
   50.1120   52.7770   18.1760 C   0  0  0  0  0  0  0  0  0  0  0  0
   49.8810   51.4870   18.7470 O   0  0  0  0  0  0  0  0  0  0  0  0
   49.4130   50.5140   17.8130 C   0  0  0  0  0  0  0  0  0  0  0  0
   48.7140   49.3790   18.5650 C   0  0  0  0  0  0  0  0  0  0  0  0
   46.5160   48.2030   18.7390 C   0  0  0  0  0  0  0  0  0  0  0  0
   47.4600   48.9550   17.7980 C   0  0  0  0  0  0  0  0  0  0  0  0
   46.7520   50.1970   17.2510 C   0  0  0  0  0  0  0  0  0  0  0  0
   50.5070   56.6230   20.6410 C   0  0  1  0  0  0  0  0  0  0  0  0
   49.0790   56.7990   21.1590 C   0  0  0  0  0  0  0  0  0  0  0  0
   48.0870   56.4870   20.0380 C   0  0  0  0  0  0  0  0  0  0  0  0
   48.8820   58.2410   21.6280 C   0  0  0  0  0  0  0  0  0  0  0  0
   51.4850   57.0810   21.6920 C   0  0  0  0  0  0  0  0  0  0  0  0
   52.5490   58.2250   21.3510 S   0  0  0  0  0  0  0  0  0  0  0  0
   51.4600   56.5280   22.9220 N   0  0  0  0  0  0  0  0  0  0  0  0
   51.8370   55.6460   23.0640 H   0  0  0  0  0  0  0  0  0  0  0  0
   51.0640   57.0120   23.6630 H   0  0  0  0  0  0  0  0  0  0  0  0
  1  3  1  0  0  0  0
  2  1  1  0  0  0  0
  3  4  2  0  0  0  0
  5  1  1  0  0  0  0
  6  7  1  0  0  0  0
  6  5  1  0  0  0  0
  8  9  1  0  0  0  0
  8  7  1  0  0  0  0
 11  9  1  0  0  0  0
 11 10  1  0  0  0  0
 12 11  1  0  0  0  0
 13  3  1  1  0  0  0
 13 14  1  0  0  0  0
 13 17  1  0  0  0  0
 14 16  1  0  0  0  0
 15 14  1  0  0  0  0
 17 19  1  0  0  0  0
 18 17  2  0  0  0  0
 19 20  1  0  0  0  0
 19 21  1  0  0  0  0
M  END
>  <MODEL>
2

>  <REMARK>
  Name = ZINC45109592
                            x       y       z     vdW  Elec       q    Type
                         _______ _______ _______ _____ _____    ______ ____

>  <TORSDO>
F 10

>  <minimizedAffinity>
-6.0803026339560011

$$$$
ZINC45109592
 OpenBabel10211214463D

 21 20  0  0  1  0  0  0  0  0999 V2000
   50.9720   53.7270   20.5230 N   0  0  0  0  0  0  0  0  0  0  0  0
   50.4010   53.3370   21.2040 H   0  0  0  0  0  0  0  0  0  0  0  0
   51.0680   53.1460   19.3110 C   0  0  0  0  0  0  0  0  0  0  0  0
   51.7810   53.6340   18.4600 O   0  0  0  0  0  0  0  0  0  0  0  0
   51.7290   54.9470   20.8130 C   0  0  0  0  0  0  0  0  0  0  0  0
   51.6460   55.2550   22.3090 C   0  0  0  0  0  0  0  0  0  0  0  0
   51.0090   56.5200   22.5010 O   0  0  0  0  0  0  0  0  0  0  0  0
   50.3930   57.0450   21.3250 C   0  0  0  0  0  0  0  0  0  0  0  0
   49.2210   57.9460   21.7210 C   0  0  0  0  0  0  0  0  0  0  0  0
   47.6720   58.7360   19.9260 C   0  0  0  0  0  0  0  0  0  0  0  0
   47.9940   57.5850   20.8820 C   0  0  0  0  0  0  0  0  0  0  0  0
   48.2820   56.3170   20.0760 C   0  0  0  0  0  0  0  0  0  0  0  0
   50.2880   51.8910   19.0120 C   0  0  1  0  0  0  0  0  0  0  0  0
   49.5310   52.0640   17.6950 C   0  0  0  0  0  0  0  0  0  0  0  0
   48.6240   53.2920   17.7840 C   0  0  0  0  0  0  0  0  0  0  0  0
   48.6810   50.8200   17.4300 C   0  0  0  0  0  0  0  0  0  0  0  0
   51.2380   50.7270   18.8980 C   0  0  0  0  0  0  0  0  0  0  0  0
   51.1620   49.5260   19.9520 S   0  0  0  0  0  0  0  0  0  0  0  0
   52.1510   50.6960   17.9060 N   0  0  0  0  0  0  0  0  0  0  0  0
   52.1800   49.9410   17.2980 H   0  0  0  0  0  0  0  0  0  0  0  0
   52.7780   51.4280   17.8020 H   0  0  0  0  0  0  0  0  0  0  0  0
  1  5  1  0  0  0  0
  1  2  1  0  0  0  0
  3  1  1  0  0  0  0
  4  3  2  0  0  0  0
  5  6  1  0  0  0  0
  6  7  1  0  0  0  0
  8  9  1  0  0  0  0
  8  7  1  0  0  0  0
 10 11  1  0  0  0  0
 11  9  1  0  0  0  0
 12 11  1  0  0  0  0
 13 14  1  6  0  0  0
 13  3  1  0  0  0  0
 14 15  1  0  0  0  0
 16 14  1  0  0  0  0
 17 13  1  0  0  0  0
 17 18  2  0  0  0  0
 19 17  1  0  0  0  0
 20 19  1  0  0  0  0
 21 19  1  0  0  0  0
M  END
>  <MODEL>
3

>  <REMARK>
  Name = ZINC45109592
                            x       y       z     vdW  Elec       q    Type
                         _______ _______ _______ _____ _____    ______ ____

>  <TORSDO>
F 10

>  <minimizedAffinity>
-5.925411034868679

$$$$
ZINC45109592
 OpenBabel10211214463D

 21 20  0  0  1  0  0  0  0  0999 V2000
   51.2380   55.0470   19.1140 N   0  0  0  0  0  0  0  0  0  0  0  0
   51.5830   55.7620   18.5560 H   0  0  0  0  0  0  0  0  0  0  0  0
   50.6300   55.3360   20.2820 C   0  0  0  0  0  0  0  0  0  0  0  0
   50.1990   54.4420   20.9780 O   0  0  0  0  0  0  0  0  0  0  0  0
   51.3800   53.6530   18.6860 C   0  0  0  0  0  0  0  0  0  0  0  0
   52.7960   53.1660   18.9950 C   0  0  0  0  0  0  0  0  0  0  0  0
   52.7350   51.8720   19.5990 O   0  0  0  0  0  0  0  0  0  0  0  0
   52.1520   50.8690   18.7650 C   0  0  0  0  0  0  0  0  0  0  0  0
   51.0480   50.1430   19.5370 C   0  0  0  0  0  0  0  0  0  0  0  0
   50.0260   50.5040   17.2850 C   0  0  0  0  0  0  0  0  0  0  0  0
   49.7320   50.2490   18.7650 C   0  0  0  0  0  0  0  0  0  0  0  0
   48.9490   48.9420   18.9120 C   0  0  0  0  0  0  0  0  0  0  0  0
   50.4840   56.7700   20.7210 C   0  0  1  0  0  0  0  0  0  0  0  0
   49.0860   56.9860   21.3010 C   0  0  0  0  0  0  0  0  0  0  0  0
   48.0460   56.8570   20.1870 C   0  0  0  0  0  0  0  0  0  0  0  0
   49.0010   58.3820   21.9200 C   0  0  0  0  0  0  0  0  0  0  0  0
   51.5190   57.0790   21.7730 C   0  0  0  0  0  0  0  0  0  0  0  0
   52.6150   58.2120   21.5080 S   0  0  0  0  0  0  0  0  0  0  0  0
   51.5170   56.4010   22.9390 N   0  0  0  0  0  0  0  0  0  0  0  0
   50.6780   56.1180   23.3340 H   0  0  0  0  0  0  0  0  0  0  0  0
   52.3550   56.1980   23.3820 H   0  0  0  0  0  0  0  0  0  0  0  0
  1  3  1  0  0  0  0
  2  1  1  0  0  0  0
  3  4  2  0  0  0  0
  5  6  1  0  0  0  0
  5  1  1  0  0  0  0
  6  7  1  0  0  0  0
  8  9  1  0  0  0  0
  8  7  1  0  0  0  0
 10 11  1  0  0  0  0
 11 12  1  0  0  0  0
 11  9  1  0  0  0  0
 13  3  1  1  0  0  0
 13 14  1  0  0  0  0
 13 17  1  0  0  0  0
 14 16  1  0  0  0  0
 15 14  1  0  0  0  0
 17 19  1  0  0  0  0
 18 17  2  0  0  0  0
 19 20  1  0  0  0  0
 19 21  1  0  0  0  0
M  END
>  <MODEL>
4

>  <REMARK>
  Name = ZINC45109592
                            x       y       z     vdW  Elec       q    Type
                         _______ _______ _______ _____ _____    ______ ____

>  <TORSDO>
F 10

>  <minimizedAffinity>
-5.8635877956021334

$$$$
ZINC45109592
 OpenBabel10211214463D

 21 20  0  0  1  0  0  0  0  0999 V2000
   50.7190   52.5880   20.2090 N   0  0  0  0  0  0  0  0  0  0  0  0
   49.9080   52.5860   20.7420 H   0  0  0  0  0  0  0  0  0  0  0  0
   50.7020   52.0950   18.9540 C   0  0  0  0  0  0  0  0  0  0  0  0
   51.7150   52.0980   18.2890 O   0  0  0  0  0  0  0  0  0  0  0  0
   51.9610   53.1260   20.7680 C   0  0  0  0  0  0  0  0  0  0  0  0
   51.8770   54.6520   20.8220 C   0  0  0  0  0  0  0  0  0  0  0  0
   51.5620   55.0660   22.1540 O   0  0  0  0  0  0  0  0  0  0  0  0
   51.4580   56.4820   22.3130 C   0  0  0  0  0  0  0  0  0  0  0  0
   50.6850   57.0730   21.1330 C   0  0  0  0  0  0  0  0  0  0  0  0
   48.7390   58.4900   21.8040 C   0  0  0  0  0  0  0  0  0  0  0  0
   49.1880   57.0700   21.4500 C   0  0  0  0  0  0  0  0  0  0  0  0
   48.4090   56.5780   20.2280 C   0  0  0  0  0  0  0  0  0  0  0  0
   49.4240   51.5410   18.3790 C   0  0  1  0  0  0  0  0  0  0  0  0
   48.9250   52.4640   17.2650 C   0  0  0  0  0  0  0  0  0  0  0  0
   48.8280   53.8950   17.7940 C   0  0  0  0  0  0  0  0  0  0  0  0
   47.5460   51.9970   16.7980 C   0  0  0  0  0  0  0  0  0  0  0  0
   49.6820   50.1670   17.8160 C   0  0  0  0  0  0  0  0  0  0  0  0
   49.0630   48.8800   18.5360 S   0  0  0  0  0  0  0  0  0  0  0  0
   50.4320   50.0230   16.7060 N   0  0  0  0  0  0  0  0  0  0  0  0
   50.0750   50.2840   15.8430 H   0  0  0  0  0  0  0  0  0  0  0  0
   51.3280   49.6570   16.7700 H   0  0  0  0  0  0  0  0  0  0  0  0
  1  2  1  0  0  0  0
  1  5  1  0  0  0  0
  3  1  1  0  0  0  0
  4  3  2  0  0  0  0
  5  6  1  0  0  0  0
  6  7  1  0  0  0  0
  7  8  1  0  0  0  0
  9 11  1  0  0  0  0
  9  8  1  0  0  0  0
 11 10  1  0  0  0  0
 12 11  1  0  0  0  0
 13 14  1  6  0  0  0
 13  3  1  0  0  0  0
 14 15  1  0  0  0  0
 16 14  1  0  0  0  0
 17 13  1  0  0  0  0
 17 18  2  0  0  0  0
 19 21  1  0  0  0  0
 19 17  1  0  0  0  0
 20 19  1  0  0  0  0
M  END
>  <MODEL>
5

>  <REMARK>
  Name = ZINC45109592
                            x       y       z     vdW  Elec       q    Type
                         _______ _______ _______ _____ _____    ______ ____

>  <TORSDO>
F 10

>  <minimizedAffinity>
-5.7486853035880685

$$$$
ZINC45109592
 OpenBabel10211214463D

 21 20  0  0  1  0  0  0  0  0999 V2000
   52.1110   54.5280   19.1650 N   0  0  0  0  0  0  0  0  0  0  0  0
   52.0230   55.1560   18.4290 H   0  0  0  0  0  0  0  0  0  0  0  0
   51.7420   54.8920   20.4090 C   0  0  0  0  0  0  0  0  0  0  0  0
   51.8520   54.1070   21.3260 O   0  0  0  0  0  0  0  0  0  0  0  0
   52.6450   53.1860   18.9210 C   0  0  0  0  0  0  0  0  0  0  0  0
   51.5210   52.2720   18.4270 C   0  0  0  0  0  0  0  0  0  0  0  0
   51.4320   51.1250   19.2740 O   0  0  0  0  0  0  0  0  0  0  0  0
   50.4470   50.1750   18.8640 C   0  0  0  0  0  0  0  0  0  0  0  0
   49.2620   50.9090   18.2340 C   0  0  0  0  0  0  0  0  0  0  0  0
   48.9890   49.1390   16.4920 C   0  0  0  0  0  0  0  0  0  0  0  0
   48.2940   49.8900   17.6290 C   0  0  0  0  0  0  0  0  0  0  0  0
   47.8600   48.8950   18.7080 C   0  0  0  0  0  0  0  0  0  0  0  0
   51.1920   56.2730   20.6590 C   0  0  1  0  0  0  0  0  0  0  0  0
   49.7210   56.1700   21.0650 C   0  0  0  0  0  0  0  0  0  0  0  0
   48.9370   55.4580   19.9620 C   0  0  0  0  0  0  0  0  0  0  0  0
   49.1510   57.5740   21.2720 C   0  0  0  0  0  0  0  0  0  0  0  0
   51.9750   56.9300   21.7670 C   0  0  0  0  0  0  0  0  0  0  0  0
   52.8490   58.2340   21.4640 S   0  0  0  0  0  0  0  0  0  0  0  0
   51.9360   56.4190   23.0140 N   0  0  0  0  0  0  0  0  0  0  0  0
   51.2440   56.7020   23.6320 H   0  0  0  0  0  0  0  0  0  0  0  0
   52.6010   55.7710   23.2940 H   0  0  0  0  0  0  0  0  0  0  0  0
  1  3  1  0  0  0  0
  2  1  1  0  0  0  0
  3  4  2  0  0  0  0
  5  1  1  0  0  0  0
  6  5  1  0  0  0  0
  6  7  1  0  0  0  0
  8  7  1  0  0  0  0
  9  8  1  0  0  0  0
 10 11  1  0  0  0  0
 11  9  1  0  0  0  0
 11 12  1  0  0  0  0
 13  3  1  1  0  0  0
 13 14  1  0  0  0  0
 13 17  1  0  0  0  0
 14 16  1  0  0  0  0
 15 14  1  0  0  0  0
 17 19  1  0  0  0  0
 18 17  2  0  0  0  0
 19 21  1  0  0  0  0
 19 20  1  0  0  0  0
M  END
>  <MODEL>
6

>  <REMARK>
  Name = ZINC45109592
                            x       y       z     vdW  Elec       q    Type
                         _______ _______ _______ _____ _____    ______ ____

>  <TORSDO>
F 10

>  <minimizedAffinity>
-5.7366288204519948

$$$$
ZINC45109592
 OpenBabel10211214463D

 21 20  0  0  1  0  0  0  0  0999 V2000
   49.4240   53.6780   19.0760 N   0  0  0  0  0  0  0  0  0  0  0  0
   48.6550   53.5290   19.6480 H   0  0  0  0  0  0  0  0  0  0  0  0
   50.4510   54.4350   19.5110 C   0  0  0  0  0  0  0  0  0  0  0  0
   51.4120   54.6200   18.7960 O   0  0  0  0  0  0  0  0  0  0  0  0
   49.4690   53.0800   17.7390 C   0  0  0  0  0  0  0  0  0  0  0  0
   49.9260   51.6240   17.8470 C   0  0  0  0  0  0  0  0  0  0  0  0
   48.9060   50.8500   18.4830 O   0  0  0  0  0  0  0  0  0  0  0  0
   48.6500   49.5950   17.8510 C   0  0  0  0  0  0  0  0  0  0  0  0
   47.7640   48.7380   18.7580 C   0  0  0  0  0  0  0  0  0  0  0  0
   45.5540   47.5880   18.9420 C   0  0  0  0  0  0  0  0  0  0  0  0
   46.5130   48.3070   17.9910 C   0  0  0  0  0  0  0  0  0  0  0  0
   45.8220   49.5410   17.4070 C   0  0  0  0  0  0  0  0  0  0  0  0
   50.4050   55.0500   20.8860 C   0  0  1  0  0  0  0  0  0  0  0  0
   51.6490   54.6330   21.6730 C   0  0  0  0  0  0  0  0  0  0  0  0
   51.6070   53.1270   21.9330 C   0  0  0  0  0  0  0  0  0  0  0  0
   51.6810   55.3810   23.0070 C   0  0  0  0  0  0  0  0  0  0  0  0
   50.3670   56.5510   20.7620 C   0  0  0  0  0  0  0  0  0  0  0  0
   49.0740   57.3610   21.2450 S   0  0  0  0  0  0  0  0  0  0  0  0
   51.4230   57.2120   20.2470 N   0  0  0  0  0  0  0  0  0  0  0  0
   51.2850   58.0370   19.7560 H   0  0  0  0  0  0  0  0  0  0  0  0
   52.3190   56.8610   20.3660 H   0  0  0  0  0  0  0  0  0  0  0  0
  1  3  1  0  0  0  0
  1  2  1  0  0  0  0
  4  3  2  0  0  0  0
  5  6  1  0  0  0  0
  5  1  1  0  0  0  0
  6  7  1  0  0  0  0
  8  7  1  0  0  0  0
  8  9  1  0  0  0  0
 11  9  1  0  0  0  0
 11 10  1  0  0  0  0
 12 11  1  0  0  0  0
 13  3  1  6  0  0  0
 13 14  1  0  0  0  0
 14 15  1  0  0  0  0
 14 16  1  0  0  0  0
 17 13  1  0  0  0  0
 17 18  2  0  0  0  0
 19 21  1  0  0  0  0
 19 17  1  0  0  0  0
 20 19  1  0  0  0  0
M  END
>  <MODEL>
7

>  <REMARK>
  Name = ZINC45109592
                            x       y       z     vdW  Elec       q    Type
                         _______ _______ _______ _____ _____    ______ ____

>  <TORSDO>
F 10

>  <minimizedAffinity>
-5.636073546193372

$$$$
ZINC45109592
 OpenBabel10211214463D

 21 20  0  0  1  0  0  0  0  0999 V2000
   49.9570   52.2210   18.8630 N   0  0  0  0  0  0  0  0  0  0  0  0
   49.2830   52.4000   19.5370 H   0  0  0  0  0  0  0  0  0  0  0  0
   49.8360   51.1480   18.0570 C   0  0  0  0  0  0  0  0  0  0  0  0
   50.6780   50.9250   17.2140 O   0  0  0  0  0  0  0  0  0  0  0  0
   51.1070   53.1180   18.7210 C   0  0  0  0  0  0  0  0  0  0  0  0
   51.8280   53.2390   20.0650 C   0  0  0  0  0  0  0  0  0  0  0  0
   51.5000   54.4910   20.6720 O   0  0  0  0  0  0  0  0  0  0  0  0
   51.6510   54.5060   22.0920 C   0  0  0  0  0  0  0  0  0  0  0  0
   51.4890   55.9370   22.6070 C   0  0  0  0  0  0  0  0  0  0  0  0
   49.6850   57.4490   21.7680 C   0  0  0  0  0  0  0  0  0  0  0  0
   51.0580   56.8490   21.4570 C   0  0  0  0  0  0  0  0  0  0  0  0
   52.0810   57.9740   21.2880 C   0  0  0  0  0  0  0  0  0  0  0  0
   48.6520   50.2260   18.2020 C   0  0  1  0  0  0  0  0  0  0  0  0
   47.7160   50.4050   17.0060 C   0  0  0  0  0  0  0  0  0  0  0  0
   47.7220   51.8710   16.5690 C   0  0  0  0  0  0  0  0  0  0  0  0
   46.2970   49.9980   17.4050 C   0  0  0  0  0  0  0  0  0  0  0  0
   49.1340   48.7980   18.2550 C   0  0  0  0  0  0  0  0  0  0  0  0
   48.5680   47.7250   17.2130 S   0  0  0  0  0  0  0  0  0  0  0  0
   50.0420   48.4270   19.1790 N   0  0  0  0  0  0  0  0  0  0  0  0
   50.1790   47.4860   19.3730 H   0  0  0  0  0  0  0  0  0  0  0  0
   50.5570   49.1000   19.6510 H   0  0  0  0  0  0  0  0  0  0  0  0
  1  2  1  0  0  0  0
  3 13  1  0  0  0  0
  3  1  1  0  0  0  0
  4  3  2  0  0  0  0
  5  1  1  0  0  0  0
  5  6  1  0  0  0  0
  6  7  1  0  0  0  0
  7  8  1  0  0  0  0
  8  9  1  0  0  0  0
 11 10  1  0  0  0  0
 11  9  1  0  0  0  0
 12 11  1  0  0  0  0
 13 14  1  6  0  0  0
 13 17  1  0  0  0  0
 14 16  1  0  0  0  0
 15 14  1  0  0  0  0
 17 19  1  0  0  0  0
 18 17  2  0  0  0  0
 19 20  1  0  0  0  0
 19 21  1  0  0  0  0
M  END
>  <MODEL>
8

>  <REMARK>
  Name = ZINC45109592
                            x       y       z     vdW  Elec       q    Type
                         _______ _______ _______ _____ _____    ______ ____

>  <TORSDO>
F 10

>  <minimizedAffinity>
-5.2981668019028287

$$$$
ZINC45109592
 OpenBabel10211214463D

 21 20  0  0  1  0  0  0  0  0999 V2000
   51.8440   51.9010   18.6970 N   0  0  0  0  0  0  0  0  0  0  0  0
   52.4290   51.1310   18.7850 H   0  0  0  0  0  0  0  0  0  0  0  0
   50.6380   51.7680   18.1100 C   0  0  0  0  0  0  0  0  0  0  0  0
   49.9080   52.7300   18.0010 O   0  0  0  0  0  0  0  0  0  0  0  0
   52.2730   53.2070   19.2030 C   0  0  0  0  0  0  0  0  0  0  0  0
   51.9820   53.2940   20.7020 C   0  0  0  0  0  0  0  0  0  0  0  0
   52.1270   54.6470   21.1390 O   0  0  0  0  0  0  0  0  0  0  0  0
   51.2840   55.5730   20.4520 C   0  0  0  0  0  0  0  0  0  0  0  0
   50.4030   56.3090   21.4640 C   0  0  0  0  0  0  0  0  0  0  0  0
   48.3090   56.2770   20.1010 C   0  0  0  0  0  0  0  0  0  0  0  0
   49.3840   57.1730   20.7200 C   0  0  0  0  0  0  0  0  0  0  0  0
   48.7310   58.1500   21.7010 C   0  0  0  0  0  0  0  0  0  0  0  0
   50.1970   50.4240   17.5900 C   0  0  1  0  0  0  0  0  0  0  0  0
   49.1920   49.8060   18.5640 C   0  0  0  0  0  0  0  0  0  0  0  0
   49.9400   49.1970   19.7510 C   0  0  0  0  0  0  0  0  0  0  0  0
   48.3960   48.7130   17.8480 C   0  0  0  0  0  0  0  0  0  0  0  0
   49.5490   50.5970   16.2400 C   0  0  0  0  0  0  0  0  0  0  0  0
   50.1810   49.8890   14.9530 S   0  0  0  0  0  0  0  0  0  0  0  0
   48.4350   51.3470   16.1190 N   0  0  0  0  0  0  0  0  0  0  0  0
   48.3210   51.9240   15.3470 H   0  0  0  0  0  0  0  0  0  0  0  0
   47.7500   51.3120   16.8040 H   0  0  0  0  0  0  0  0  0  0  0  0
  1  2  1  0  0  0  0
  1  5  1  0  0  0  0
  3  1  1  0  0  0  0
  4  3  2  0  0  0  0
  5  6  1  0  0  0  0
  6  7  1  0  0  0  0
  8  7  1  0  0  0  0
  8  9  1  0  0  0  0
 10 11  1  0  0  0  0
 11  9  1  0  0  0  0
 11 12  1  0  0  0  0
 13 17  1  1  0  0  0
 13  3  1  0  0  0  0
 13 14  1  0  0  0  0
 14 15  1  0  0  0  0
 16 14  1  0  0  0  0
 18 17  2  0  0  0  0
 19 17  1  0  0  0  0
 19 21  1  0  0  0  0
 20 19  1  0  0  0  0
M  END
>  <MODEL>
9

>  <REMARK>
  Name = ZINC45109592
                            x       y       z     vdW  Elec       q    Type
                         _______ _______ _______ _____ _____    ______ ____

>  <TORSDO>
F 10

>  <minimizedAffinity>
-5.288318498631444

$$$$
ZINC37876788
 OpenBabel10211214473D

 22 22  0  0  1  0  0  0  0  0999 V2000
   49.9960   48.5110   19.1300 N   0  0  0  0  0  0  0  0  0  0  0  0
   50.3480   47.6510   18.8520 H   0  0  0  0  0  0  0  0  0  0  0  0
   48.9250   49.0840   18.4420 C   0  0  0  0  0  0  0  0  0  0  0  0
   49.1390   50.1690   17.6030 C   0  0  0  0  0  0  0  0  0  0  0  0
   48.0740   50.7380   16.9210 C   0  0  0  0  0  0  0  0  0  0  0  0
   46.7960   50.2230   17.0770 C   0  0  0  0  0  0  0  0  0  0  0  0
   46.5810   49.1400   17.9160 C   0  0  0  0  0  0  0  0  0  0  0  0
   47.6460   48.5660   18.5940 C   0  0  0  0  0  0  0  0  0  0  0  0
   48.2840   51.8000   16.1000 O   0  0  0  0  0  0  0  0  0  0  0  0
   47.9060   53.0870   16.5950 C   0  0  0  0  0  0  0  0  0  0  0  0
   45.3280   48.6360   18.0680 O   0  0  0  0  0  0  0  0  0  0  0  0
   45.1910   47.4760   18.8910 C   0  0  0  0  0  0  0  0  0  0  0  0
   50.5920   49.2100   20.2730 C   0  0  0  0  0  0  0  0  0  0  0  0
   51.9420   49.8010   19.8620 C   0  0  2  0  0  0  0  0  0  0  0  0
   52.9510   48.7940   19.9550 O   0  0  0  0  0  0  0  0  0  0  0  0
   52.6660   47.9220   19.6480 H   0  0  0  0  0  0  0  0  0  0  0  0
   52.2940   50.9640   20.7910 C   0  0  0  0  0  0  0  0  0  0  0  0
   52.5760   52.1280   20.0120 O   0  0  0  0  0  0  0  0  0  0  0  0
   51.6850   53.4070   21.8600 C   0  0  0  0  0  0  0  0  0  0  0  0
   51.7620   53.2570   20.3390 C   0  0  0  0  0  0  0  0  0  0  0  0
   52.3750   54.5200   19.7320 C   0  0  0  0  0  0  0  0  0  0  0  0
   50.3540   53.0520   19.7740 C   0  0  0  0  0  0  0  0  0  0  0  0
  1 13  1  0  0  0  0
  2  1  1  0  0  0  0
  3  8  1  0  0  0  0
  3  1  1  0  0  0  0
  4  3  2  0  0  0  0
  5  6  2  0  0  0  0
  5  4  1  0  0  0  0
  6  7  1  0  0  0  0
  7 11  1  0  0  0  0
  7  8  2  0  0  0  0
  9 10  1  0  0  0  0
  9  5  1  0  0  0  0
 11 12  1  0  0  0  0
 14 15  1  1  0  0  0
 14 13  1  0  0  0  0
 14 17  1  0  0  0  0
 16 15  1  0  0  0  0
 18 20  1  0  0  0  0
 18 17  1  0  0  0  0
 20 19  1  0  0  0  0
 21 20  1  0  0  0  0
 22 20  1  0  0  0  0
M  END
>  <MODEL>
1

>  <REMARK>
  Name = ZINC37876788
                            x       y       z     vdW  Elec       q    Type
                         _______ _______ _______ _____ _____    ______ ____

>  <TORSDO>
F 9

>  <minimizedAffinity>
-7.0123909787600907

$$$$
ZINC37876788
 OpenBabel10211214473D

 22 22  0  0  1  0  0  0  0  0999 V2000
   50.3800   48.7190   19.2680 N   0  0  0  0  0  0  0  0  0  0  0  0
   50.7110   47.8480   18.9990 H   0  0  0  0  0  0  0  0  0  0  0  0
   49.3170   49.3070   18.5800 C   0  0  0  0  0  0  0  0  0  0  0  0
   48.0460   48.7550   18.6630 C   0  0  0  0  0  0  0  0  0  0  0  0
   46.9920   49.3390   17.9780 C   0  0  0  0  0  0  0  0  0  0  0  0
   47.2070   50.4740   17.2110 C   0  0  0  0  0  0  0  0  0  0  0  0
   48.4760   51.0260   17.1280 C   0  0  0  0  0  0  0  0  0  0  0  0
   49.5310   50.4470   17.8160 C   0  0  0  0  0  0  0  0  0  0  0  0
   45.7470   48.7990   18.0590 O   0  0  0  0  0  0  0  0  0  0  0  0
   45.6120   47.5960   18.8210 C   0  0  0  0  0  0  0  0  0  0  0  0
   48.6850   52.1380   16.3750 O   0  0  0  0  0  0  0  0  0  0  0  0
   47.7100   53.1780   16.4690 C   0  0  0  0  0  0  0  0  0  0  0  0
   50.9980   49.4180   20.3990 C   0  0  0  0  0  0  0  0  0  0  0  0
   52.3080   50.0640   19.9450 C   0  0  2  0  0  0  0  0  0  0  0  0
   53.3950   49.1760   20.2140 O   0  0  0  0  0  0  0  0  0  0  0  0
   54.0070   49.0660   19.4720 H   0  0  0  0  0  0  0  0  0  0  0  0
   52.5210   51.3750   20.7030 C   0  0  0  0  0  0  0  0  0  0  0  0
   52.2400   52.4770   19.8380 O   0  0  0  0  0  0  0  0  0  0  0  0
   51.5950   53.3720   21.9880 C   0  0  0  0  0  0  0  0  0  0  0  0
   51.5320   53.5460   20.4690 C   0  0  0  0  0  0  0  0  0  0  0  0
   52.1720   54.8800   20.0810 C   0  0  0  0  0  0  0  0  0  0  0  0
   50.0710   53.5310   20.0140 C   0  0  0  0  0  0  0  0  0  0  0  0
  1 13  1  0  0  0  0
  2  1  1  0  0  0  0
  3  4  1  0  0  0  0
  3  1  1  0  0  0  0
  5  9  1  0  0  0  0
  5  4  2  0  0  0  0
  6  5  1  0  0  0  0
  7  6  2  0  0  0  0
  7  8  1  0  0  0  0
  8  3  2  0  0  0  0
  9 10  1  0  0  0  0
 11 12  1  0  0  0  0
 11  7  1  0  0  0  0
 14 15  1  1  0  0  0
 14 13  1  0  0  0  0
 14 17  1  0  0  0  0
 16 15  1  0  0  0  0
 18 20  1  0  0  0  0
 18 17  1  0  0  0  0
 20 19  1  0  0  0  0
 21 20  1  0  0  0  0
 22 20  1  0  0  0  0
M  END
>  <MODEL>
2

>  <REMARK>
  Name = ZINC37876788
                            x       y       z     vdW  Elec       q    Type
                         _______ _______ _______ _____ _____    ______ ____

>  <TORSDO>
F 9

>  <minimizedAffinity>
-6.9498041703681865

$$$$
ZINC37876788
 OpenBabel10211214473D

 22 22  0  0  1  0  0  0  0  0999 V2000
   50.4460   49.9520   18.3530 N   0  0  0  0  0  0  0  0  0  0  0  0
   50.8520   50.6780   17.8540 H   0  0  0  0  0  0  0  0  0  0  0  0
   49.2610   49.3690   17.8990 C   0  0  0  0  0  0  0  0  0  0  0  0
   49.0280   49.2390   16.5360 C   0  0  0  0  0  0  0  0  0  0  0  0
   47.8510   48.6610   16.0870 C   0  0  0  0  0  0  0  0  0  0  0  0
   46.9070   48.2120   16.9980 C   0  0  0  0  0  0  0  0  0  0  0  0
   47.1390   48.3410   18.3590 C   0  0  0  0  0  0  0  0  0  0  0  0
   48.3180   48.9140   18.8110 C   0  0  0  0  0  0  0  0  0  0  0  0
   47.6230   48.5340   14.7530 O   0  0  0  0  0  0  0  0  0  0  0  0
   46.3010   48.1640   14.3540 C   0  0  0  0  0  0  0  0  0  0  0  0
   46.2130   47.9010   19.2510 O   0  0  0  0  0  0  0  0  0  0  0  0
   44.9690   47.4390   18.7200 C   0  0  0  0  0  0  0  0  0  0  0  0
   51.0770   49.4680   19.5840 C   0  0  0  0  0  0  0  0  0  0  0  0
   52.4140   50.1820   19.7870 C   0  0  2  0  0  0  0  0  0  0  0  0
   53.3970   49.2410   20.2230 O   0  0  0  0  0  0  0  0  0  0  0  0
   54.3000   49.5870   20.2220 H   0  0  0  0  0  0  0  0  0  0  0  0
   52.2520   51.2770   20.8440 C   0  0  0  0  0  0  0  0  0  0  0  0
   51.0380   51.9920   20.6070 O   0  0  0  0  0  0  0  0  0  0  0  0
   52.2290   53.9050   19.7330 C   0  0  0  0  0  0  0  0  0  0  0  0
   51.1680   53.4110   20.7190 C   0  0  0  0  0  0  0  0  0  0  0  0
   49.8270   54.0730   20.4000 C   0  0  0  0  0  0  0  0  0  0  0  0
   51.5890   53.7740   22.1450 C   0  0  0  0  0  0  0  0  0  0  0  0
  1 13  1  0  0  0  0
  2  1  1  0  0  0  0
  3  1  1  0  0  0  0
  3  8  2  0  0  0  0
  4  3  1  0  0  0  0
  5  4  2  0  0  0  0
  5  6  1  0  0  0  0
  6  7  2  0  0  0  0
  7  8  1  0  0  0  0
  7 11  1  0  0  0  0
  9  5  1  0  0  0  0
 10  9  1  0  0  0  0
 12 11  1  0  0  0  0
 14 13  1  1  0  0  0
 14 15  1  0  0  0  0
 14 17  1  0  0  0  0
 16 15  1  0  0  0  0
 18 20  1  0  0  0  0
 18 17  1  0  0  0  0
 19 20  1  0  0  0  0
 20 22  1  0  0  0  0
 21 20  1  0  0  0  0
M  END
>  <MODEL>
3

>  <REMARK>
  Name = ZINC37876788
                            x       y       z     vdW  Elec       q    Type
                         _______ _______ _______ _____ _____    ______ ____

>  <TORSDO>
F 9

>  <minimizedAffinity>
-6.667756745375911

$$$$
ZINC37876788
 OpenBabel10211214473D

 22 22  0  0  1  0  0  0  0  0999 V2000
   50.2220   53.7870   19.9140 N   0  0  0  0  0  0  0  0  0  0  0  0
   49.7310   53.0720   20.3460 H   0  0  0  0  0  0  0  0  0  0  0  0
   50.4290   54.9960   20.5810 C   0  0  0  0  0  0  0  0  0  0  0  0
   49.3830   55.8970   20.7280 C   0  0  0  0  0  0  0  0  0  0  0  0
   49.5900   57.0970   21.3900 C   0  0  0  0  0  0  0  0  0  0  0  0
   50.8410   57.3970   21.9060 C   0  0  0  0  0  0  0  0  0  0  0  0
   51.8870   56.4990   21.7600 C   0  0  0  0  0  0  0  0  0  0  0  0
   51.6810   55.2950   21.1030 C   0  0  0  0  0  0  0  0  0  0  0  0
   48.5650   57.9780   21.5330 O   0  0  0  0  0  0  0  0  0  0  0  0
   47.5160   57.9150   20.5640 C   0  0  0  0  0  0  0  0  0  0  0  0
   53.1130   56.7950   22.2660 O   0  0  0  0  0  0  0  0  0  0  0  0
   53.8560   57.8220   21.6060 C   0  0  0  0  0  0  0  0  0  0  0  0
   50.7470   53.6000   18.5580 C   0  0  0  0  0  0  0  0  0  0  0  0
   51.6750   52.3840   18.5330 C   0  0  2  0  0  0  0  0  0  0  0  0
   52.8030   52.6620   17.7010 O   0  0  0  0  0  0  0  0  0  0  0  0
   53.6530   52.6110   18.1610 H   0  0  0  0  0  0  0  0  0  0  0  0
   50.9180   51.1750   17.9800 C   0  0  0  0  0  0  0  0  0  0  0  0
   49.5120   51.3960   18.1050 O   0  0  0  0  0  0  0  0  0  0  0  0
   47.3540   50.9610   17.1060 C   0  0  0  0  0  0  0  0  0  0  0  0
   48.7080   50.3740   17.5100 C   0  0  0  0  0  0  0  0  0  0  0  0
   49.4170   49.8260   16.2700 C   0  0  0  0  0  0  0  0  0  0  0  0
   48.4940   49.2420   18.5170 C   0  0  0  0  0  0  0  0  0  0  0  0
  1  2  1  0  0  0  0
  1  3  1  0  0  0  0
  3  4  2  0  0  0  0
  3  8  1  0  0  0  0
  4  5  1  0  0  0  0
  5  9  1  0  0  0  0
  5  6  2  0  0  0  0
  7  6  1  0  0  0  0
  7 11  1  0  0  0  0
  8  7  2  0  0  0  0
 10  9  1  0  0  0  0
 12 11  1  0  0  0  0
 13  1  1  0  0  0  0
 14 15  1  6  0  0  0
 14 13  1  0  0  0  0
 15 16  1  0  0  0  0
 17 18  1  0  0  0  0
 17 14  1  0  0  0  0
 19 20  1  0  0  0  0
 20 18  1  0  0  0  0
 20 22  1  0  0  0  0
 21 20  1  0  0  0  0
M  END
>  <MODEL>
4

>  <REMARK>
  Name = ZINC37876788
                            x       y       z     vdW  Elec       q    Type
                         _______ _______ _______ _____ _____    ______ ____

>  <TORSDO>
F 9

>  <minimizedAffinity>
-6.5436359597089266

$$$$
ZINC37876788
 OpenBabel10211214473D

 22 22  0  0  1  0  0  0  0  0999 V2000
   51.0440   51.8670   20.7340 N   0  0  0  0  0  0  0  0  0  0  0  0
   50.3020   51.2590   20.8820 H   0  0  0  0  0  0  0  0  0  0  0  0
   50.8540   53.2450   20.8580 C   0  0  0  0  0  0  0  0  0  0  0  0
   49.7820   53.8580   20.2230 C   0  0  0  0  0  0  0  0  0  0  0  0
   49.5950   55.2260   20.3450 C   0  0  0  0  0  0  0  0  0  0  0  0
   50.4780   55.9820   21.1020 C   0  0  0  0  0  0  0  0  0  0  0  0
   51.5480   55.3700   21.7360 C   0  0  0  0  0  0  0  0  0  0  0  0
   51.7340   54.0010   21.6200 C   0  0  0  0  0  0  0  0  0  0  0  0
   48.5460   55.8260   19.7240 O   0  0  0  0  0  0  0  0  0  0  0  0
   48.7210   56.1750   18.3490 C   0  0  0  0  0  0  0  0  0  0  0  0
   52.4130   56.1120   22.4770 O   0  0  0  0  0  0  0  0  0  0  0  0
   52.8610   57.3450   21.9100 C   0  0  0  0  0  0  0  0  0  0  0  0
   52.3640   51.3380   20.3800 C   0  0  0  0  0  0  0  0  0  0  0  0
   52.2280   49.8790   19.9420 C   0  0  2  0  0  0  0  0  0  0  0  0
   53.1710   49.6020   18.9050 O   0  0  0  0  0  0  0  0  0  0  0  0
   54.0690   49.4340   19.2250 H   0  0  0  0  0  0  0  0  0  0  0  0
   50.8110   49.6330   19.4200 C   0  0  0  0  0  0  0  0  0  0  0  0
   50.6160   50.3650   18.2080 O   0  0  0  0  0  0  0  0  0  0  0  0
   49.4030   49.6100   16.2580 C   0  0  0  0  0  0  0  0  0  0  0  0
   49.3050   50.2310   17.6530 C   0  0  0  0  0  0  0  0  0  0  0  0
   48.4590   49.3300   18.5540 C   0  0  0  0  0  0  0  0  0  0  0  0
   48.6500   51.6110   17.5530 C   0  0  0  0  0  0  0  0  0  0  0  0
  1  3  1  0  0  0  0
  1  2  1  0  0  0  0
  3  8  2  0  0  0  0
  4  5  2  0  0  0  0
  4  3  1  0  0  0  0
  5  6  1  0  0  0  0
  6  7  2  0  0  0  0
  7 11  1  0  0  0  0
  8  7  1  0  0  0  0
  9  5  1  0  0  0  0
 10  9  1  0  0  0  0
 12 11  1  0  0  0  0
 13  1  1  0  0  0  0
 14 15  1  6  0  0  0
 14 13  1  0  0  0  0
 15 16  1  0  0  0  0
 17 14  1  0  0  0  0
 18 17  1  0  0  0  0
 19 20  1  0  0  0  0
 20 18  1  0  0  0  0
 20 21  1  0  0  0  0
 22 20  1  0  0  0  0
M  END
>  <MODEL>
5

>  <REMARK>
  Name = ZINC37876788
                            x       y       z     vdW  Elec       q    Type
                         _______ _______ _______ _____ _____    ______ ____

>  <TORSDO>
F 9

>  <minimizedAffinity>
-6.5425288141313578

$$$$
ZINC37876788
 OpenBabel10211214473D

 22 22  0  0  1  0  0  0  0  0999 V2000
   50.3170   53.6270   19.7590 N   0  0  0  0  0  0  0  0  0  0  0  0
   49.7290   52.9380   20.1060 H   0  0  0  0  0  0  0  0  0  0  0  0
   50.4800   54.8240   20.4600 C   0  0  0  0  0  0  0  0  0  0  0  0
   51.7180   55.1520   20.9960 C   0  0  0  0  0  0  0  0  0  0  0  0
   51.8780   56.3400   21.6920 C   0  0  0  0  0  0  0  0  0  0  0  0
   50.8030   57.2000   21.8530 C   0  0  0  0  0  0  0  0  0  0  0  0
   49.5660   56.8730   21.3180 C   0  0  0  0  0  0  0  0  0  0  0  0
   49.4050   55.6880   20.6170 C   0  0  0  0  0  0  0  0  0  0  0  0
   53.0910   56.6610   22.2160 O   0  0  0  0  0  0  0  0  0  0  0  0
   53.6500   57.9190   21.8310 C   0  0  0  0  0  0  0  0  0  0  0  0
   48.5130   57.7170   21.4770 O   0  0  0  0  0  0  0  0  0  0  0  0
   47.6910   57.9520   20.3310 C   0  0  0  0  0  0  0  0  0  0  0  0
   51.0330   53.4130   18.4980 C   0  0  0  0  0  0  0  0  0  0  0  0
   51.5890   51.9880   18.4640 C   0  0  2  0  0  0  0  0  0  0  0  0
   52.7720   51.9570   17.6630 O   0  0  0  0  0  0  0  0  0  0  0  0
   52.6230   51.6670   16.7520 H   0  0  0  0  0  0  0  0  0  0  0  0
   50.5430   51.0460   17.8650 C   0  0  0  0  0  0  0  0  0  0  0  0
   49.2420   51.6150   18.0270 O   0  0  0  0  0  0  0  0  0  0  0  0
   47.9290   52.8380   16.4080 C   0  0  0  0  0  0  0  0  0  0  0  0
   48.3940   51.4610   16.8870 C   0  0  0  0  0  0  0  0  0  0  0  0
   49.1680   50.7650   15.7660 C   0  0  0  0  0  0  0  0  0  0  0  0
   47.1760   50.6150   17.2670 C   0  0  0  0  0  0  0  0  0  0  0  0
  1  2  1  0  0  0  0
  1  3  1  0  0  0  0
  3  8  2  0  0  0  0
  3  4  1  0  0  0  0
  4  5  2  0  0  0  0
  5  6  1  0  0  0  0
  5  9  1  0  0  0  0
  7 11  1  0  0  0  0
  7  6  2  0  0  0  0
  8  7  1  0  0  0  0
 10  9  1  0  0  0  0
 12 11  1  0  0  0  0
 13  1  1  0  0  0  0
 14 15  1  6  0  0  0
 14 13  1  0  0  0  0
 16 15  1  0  0  0  0
 17 18  1  0  0  0  0
 17 14  1  0  0  0  0
 19 20  1  0  0  0  0
 20 22  1  0  0  0  0
 20 18  1  0  0  0  0
 21 20  1  0  0  0  0
M  END
>  <MODEL>
6

>  <REMARK>
  Name = ZINC37876788
                            x       y       z     vdW  Elec       q    Type
                         _______ _______ _______ _____ _____    ______ ____

>  <TORSDO>
F 9

>  <minimizedAffinity>
-6.4943155204626644

$$$$
ZINC37876788
 OpenBabel10211214473D

 22 22  0  0  1  0  0  0  0  0999 V2000
   50.3610   53.7910   19.7930 N   0  0  0  0  0  0  0  0  0  0  0  0
   49.8400   53.0650   20.1690 H   0  0  0  0  0  0  0  0  0  0  0  0
   50.5060   54.9860   20.5000 C   0  0  0  0  0  0  0  0  0  0  0  0
   49.4280   55.8520   20.6310 C   0  0  0  0  0  0  0  0  0  0  0  0
   49.5740   57.0390   21.3320 C   0  0  0  0  0  0  0  0  0  0  0  0
   50.7950   57.3610   21.9040 C   0  0  0  0  0  0  0  0  0  0  0  0
   51.8720   56.4970   21.7750 C   0  0  0  0  0  0  0  0  0  0  0  0
   51.7280   55.3070   21.0780 C   0  0  0  0  0  0  0  0  0  0  0  0
   48.5190   57.8850   21.4600 O   0  0  0  0  0  0  0  0  0  0  0  0
   47.4480   57.7310   20.5250 C   0  0  0  0  0  0  0  0  0  0  0  0
   53.0690   56.8140   22.3350 O   0  0  0  0  0  0  0  0  0  0  0  0
   53.8310   57.8430   21.7000 C   0  0  0  0  0  0  0  0  0  0  0  0
   50.9960   53.6340   18.4810 C   0  0  0  0  0  0  0  0  0  0  0  0
   52.1130   52.5940   18.5760 C   0  0  2  0  0  0  0  0  0  0  0  0
   53.1420   52.9120   17.6370 O   0  0  0  0  0  0  0  0  0  0  0  0
   54.0070   53.0710   18.0400 H   0  0  0  0  0  0  0  0  0  0  0  0
   51.5470   51.2080   18.2620 C   0  0  0  0  0  0  0  0  0  0  0  0
   50.6610   50.8070   19.3090 O   0  0  0  0  0  0  0  0  0  0  0  0
   50.4080   48.9100   20.7860 C   0  0  0  0  0  0  0  0  0  0  0  0
   51.2980   50.0810   20.3630 C   0  0  0  0  0  0  0  0  0  0  0  0
   52.6450   49.5480   19.8740 C   0  0  0  0  0  0  0  0  0  0  0  0
   51.5220   51.0100   21.5590 C   0  0  0  0  0  0  0  0  0  0  0  0
  1  2  1  0  0  0  0
  1  3  1  0  0  0  0
  3  4  2  0  0  0  0
  3  8  1  0  0  0  0
  4  5  1  0  0  0  0
  5  9  1  0  0  0  0
  5  6  2  0  0  0  0
  7  6  1  0  0  0  0
  7 11  1  0  0  0  0
  8  7  2  0  0  0  0
 10  9  1  0  0  0  0
 12 11  1  0  0  0  0
 13 14  1  0  0  0  0
 13  1  1  0  0  0  0
 14 15  1  6  0  0  0
 15 16  1  0  0  0  0
 17 14  1  0  0  0  0
 17 18  1  0  0  0  0
 18 20  1  0  0  0  0
 20 19  1  0  0  0  0
 20 22  1  0  0  0  0
 21 20  1  0  0  0  0
M  END
>  <MODEL>
7

>  <REMARK>
  Name = ZINC37876788
                            x       y       z     vdW  Elec       q    Type
                         _______ _______ _______ _____ _____    ______ ____

>  <TORSDO>
F 9

>  <minimizedAffinity>
-6.46306866573667

$$$$
ZINC37876788
 OpenBabel10211214473D

 22 22  0  0  1  0  0  0  0  0999 V2000
   51.3600   51.6060   18.9930 N   0  0  0  0  0  0  0  0  0  0  0  0
   51.2930   52.5720   18.9260 H   0  0  0  0  0  0  0  0  0  0  0  0
   50.4300   50.7940   18.3410 C   0  0  0  0  0  0  0  0  0  0  0  0
   50.4650   50.6690   16.9590 C   0  0  0  0  0  0  0  0  0  0  0  0
   49.5390   49.8640   16.3130 C   0  0  0  0  0  0  0  0  0  0  0  0
   48.5810   49.1820   17.0480 C   0  0  0  0  0  0  0  0  0  0  0  0
   48.5460   49.3060   18.4280 C   0  0  0  0  0  0  0  0  0  0  0  0
   49.4730   50.1070   19.0770 C   0  0  0  0  0  0  0  0  0  0  0  0
   49.5730   49.7420   14.9600 O   0  0  0  0  0  0  0  0  0  0  0  0
   50.8620   49.6180   14.3530 C   0  0  0  0  0  0  0  0  0  0  0  0
   47.6050   48.6380   19.1470 O   0  0  0  0  0  0  0  0  0  0  0  0
   46.4090   48.2640   18.4610 C   0  0  0  0  0  0  0  0  0  0  0  0
   52.4390   51.0000   19.7790 C   0  0  0  0  0  0  0  0  0  0  0  0
   52.1600   51.2030   21.2690 C   0  0  2  0  0  0  0  0  0  0  0  0
   51.4060   50.0970   21.7680 O   0  0  0  0  0  0  0  0  0  0  0  0
   50.5320   50.0030   21.3640 H   0  0  0  0  0  0  0  0  0  0  0  0
   51.3640   52.4950   21.4670 C   0  0  0  0  0  0  0  0  0  0  0  0
   52.2480   53.6150   21.3940 O   0  0  0  0  0  0  0  0  0  0  0  0
   50.1460   54.5960   20.7140 C   0  0  0  0  0  0  0  0  0  0  0  0
   51.5890   54.8600   21.1490 C   0  0  0  0  0  0  0  0  0  0  0  0
   51.5920   55.6990   22.4270 C   0  0  0  0  0  0  0  0  0  0  0  0
   52.3250   55.6170   20.0410 C   0  0  0  0  0  0  0  0  0  0  0  0
  1 13  1  0  0  0  0
  2  1  1  0  0  0  0
  3  1  1  0  0  0  0
  3  8  2  0  0  0  0
  4  3  1  0  0  0  0
  5  4  2  0  0  0  0
  5  6  1  0  0  0  0
  6  7  2  0  0  0  0
  7  8  1  0  0  0  0
  7 11  1  0  0  0  0
  9  5  1  0  0  0  0
 10  9  1  0  0  0  0
 12 11  1  0  0  0  0
 14 13  1  6  0  0  0
 14 17  1  0  0  0  0
 14 15  1  0  0  0  0
 16 15  1  0  0  0  0
 18 17  1  0  0  0  0
 19 20  1  0  0  0  0
 20 18  1  0  0  0  0
 20 21  1  0  0  0  0
 22 20  1  0  0  0  0
M  END
>  <MODEL>
8

>  <REMARK>
  Name = ZINC37876788
                            x       y       z     vdW  Elec       q    Type
                         _______ _______ _______ _____ _____    ______ ____

>  <TORSDO>
F 9

>  <minimizedAffinity>
-6.2184700772201955

$$$$
ZINC37876788
 OpenBabel10211214473D

 22 22  0  0  1  0  0  0  0  0999 V2000
   47.3540   48.2950   17.8810 N   0  0  0  0  0  0  0  0  0  0  0  0
   47.4230   47.7830   17.0600 H   0  0  0  0  0  0  0  0  0  0  0  0
   48.2850   49.2970   18.1610 C   0  0  0  0  0  0  0  0  0  0  0  0
   48.2010   50.5230   17.5150 C   0  0  0  0  0  0  0  0  0  0  0  0
   49.1270   51.5170   17.7930 C   0  0  0  0  0  0  0  0  0  0  0  0
   50.1360   51.2860   18.7150 C   0  0  0  0  0  0  0  0  0  0  0  0
   50.2210   50.0620   19.3600 C   0  0  0  0  0  0  0  0  0  0  0  0
   49.2930   49.0680   19.0880 C   0  0  0  0  0  0  0  0  0  0  0  0
   49.0440   52.7170   17.1610 O   0  0  0  0  0  0  0  0  0  0  0  0
   48.8840   53.8740   17.9870 C   0  0  0  0  0  0  0  0  0  0  0  0
   51.2110   49.8370   20.2630 O   0  0  0  0  0  0  0  0  0  0  0  0
   52.5440   49.7370   19.7550 C   0  0  0  0  0  0  0  0  0  0  0  0
   46.2710   48.0150   18.8290 C   0  0  0  0  0  0  0  0  0  0  0  0
   44.9430   47.9320   18.0750 C   0  0  2  0  0  0  0  0  0  0  0  0
   44.5470   46.5630   17.9560 O   0  0  0  0  0  0  0  0  0  0  0  0
   45.0520   45.9580   18.5180 H   0  0  0  0  0  0  0  0  0  0  0  0
   45.1090   48.5380   16.6800 C   0  0  0  0  0  0  0  0  0  0  0  0
   44.2250   47.8830   15.7680 O   0  0  0  0  0  0  0  0  0  0  0  0
   44.9670   45.9910   14.4600 C   0  0  0  0  0  0  0  0  0  0  0  0
   44.8370   47.5140   14.5300 C   0  0  0  0  0  0  0  0  0  0  0  0
   43.9730   48.0060   13.3680 C   0  0  0  0  0  0  0  0  0  0  0  0
   46.2260   48.1500   14.4380 C   0  0  0  0  0  0  0  0  0  0  0  0
  1  3  1  0  0  0  0
  1 13  1  0  0  0  0
  2  1  1  0  0  0  0
  3  8  2  0  0  0  0
  4  5  2  0  0  0  0
  4  3  1  0  0  0  0
  5  6  1  0  0  0  0
  6  7  2  0  0  0  0
  7 11  1  0  0  0  0
  8  7  1  0  0  0  0
  9  5  1  0  0  0  0
  9 10  1  0  0  0  0
 12 11  1  0  0  0  0
 14 17  1  6  0  0  0
 14 13  1  0  0  0  0
 15 14  1  0  0  0  0
 15 16  1  0  0  0  0
 18 17  1  0  0  0  0
 19 20  1  0  0  0  0
 20 18  1  0  0  0  0
 21 20  1  0  0  0  0
 22 20  1  0  0  0  0
M  END
>  <MODEL>
9

>  <REMARK>
  Name = ZINC37876788
                            x       y       z     vdW  Elec       q    Type
                         _______ _______ _______ _____ _____    ______ ____

>  <TORSDO>
F 9

>  <minimizedAffinity>
-6.1464636096385501

$$$$
ZINC62133494
 OpenBabel10211214483D

 22 22  0  0  1  0  0  0  0  0999 V2000
   50.2800   52.7810   19.2860 N   0  0  0  0  0  0  0  0  0  0  0  0
   49.4240   53.0400   19.6630 H   0  0  0  0  0  0  0  0  0  0  0  0
   51.1400   53.7260   18.8570 C   0  0  0  0  0  0  0  0  0  0  0  0
   52.2090   53.4020   18.3860 O   0  0  0  0  0  0  0  0  0  0  0  0
   50.7260   50.7570   20.5830 C   0  0  0  0  0  0  0  0  0  0  0  0
   50.6350   51.3640   19.1810 C   0  0  1  0  0  0  0  0  0  0  0  0
   49.5640   50.6270   18.3740 C   0  0  0  0  0  0  0  0  0  0  0  0
   49.3250   49.2450   18.9860 C   0  0  0  0  0  0  0  0  0  0  0  0
   48.3250   48.4720   18.1250 C   0  0  0  0  0  0  0  0  0  0  0  0
   46.9090   48.9750   18.4090 C   0  0  0  0  0  0  0  0  0  0  0  0
   46.0220   47.7980   18.8190 C   0  0  0  0  0  0  0  0  0  0  0  0
   46.3380   49.6310   17.1500 C   0  0  0  0  0  0  0  0  0  0  0  0
   50.7740   55.1840   18.9650 C   0  0  0  0  0  0  0  0  0  0  0  0
   50.9190   55.6230   20.3590 N   0  0  0  0  0  0  0  0  0  0  0  0
   50.5430   54.9300   20.9880 H   0  0  0  0  0  0  0  0  0  0  0  0
   50.2490   56.9320   20.5640 C   0  0  0  0  0  0  0  0  0  0  0  0
   50.9260   57.5230   21.8190 C   0  0  0  0  0  0  0  0  0  0  0  0
   52.3050   56.8380   21.8920 C   0  0  1  0  0  0  0  0  0  0  0  0
   52.3460   55.8890   20.6740 C   0  0  0  0  0  0  0  0  0  0  0  0
   53.4060   57.8630   21.7970 C   0  0  0  0  0  0  0  0  0  0  0  0
   54.5010   57.5430   21.3680 O   0  0  0  0  0  0  0  0  0  0  0  0
   53.2000   59.0120   22.1470 O   0  0  0  0  0  0  0  0  0  0  0  0
  1  2  1  0  0  0  0
  3 13  1  0  0  0  0
  3  1  1  0  0  0  0
  4  3  2  0  0  0  0
  6  7  1  1  0  0  0
  6  1  1  0  0  0  0
  6  5  1  0  0  0  0
  7  8  1  0  0  0  0
  9 10  1  0  0  0  0
  9  8  1  0  0  0  0
 10 11  1  0  0  0  0
 12 10  1  0  0  0  0
 13 14  1  0  0  0  0
 14 16  1  0  0  0  0
 14 19  1  0  0  0  0
 14 15  1  0  0  0  0
 16 17  1  0  0  0  0
 17 18  1  0  0  0  0
 18 20  1  6  0  0  0
 19 18  1  0  0  0  0
 20 22  1  0  0  0  0
 21 20  2  0  0  0  0
M  END
>  <MODEL>
1

>  <REMARK>
  Name = ZINC62133494
                            x       y       z     vdW  Elec       q    Type
                         _______ _______ _______ _____ _____    ______ ____

>  <TORSDO>
F 8

>  <minimizedAffinity>
-7.0786162034464706

$$$$
ZINC62133494
 OpenBabel10211214483D

 22 22  0  0  1  0  0  0  0  0999 V2000
   50.5860   51.4430   20.1890 N   0  0  0  0  0  0  0  0  0  0  0  0
   49.7690   51.9040   20.4380 H   0  0  0  0  0  0  0  0  0  0  0  0
   51.7570   51.7940   20.7560 C   0  0  0  0  0  0  0  0  0  0  0  0
   52.7770   51.2170   20.4450 O   0  0  0  0  0  0  0  0  0  0  0  0
   50.1430   49.0580   19.8810 C   0  0  0  0  0  0  0  0  0  0  0  0
   50.5450   50.3660   19.1970 C   0  0  1  0  0  0  0  0  0  0  0  0
   49.5230   50.7100   18.1110 C   0  0  0  0  0  0  0  0  0  0  0  0
   48.3970   49.6740   18.1240 C   0  0  0  0  0  0  0  0  0  0  0  0
   47.1770   50.2360   17.3930 C   0  0  0  0  0  0  0  0  0  0  0  0
   45.9820   49.3050   17.6010 C   0  0  0  0  0  0  0  0  0  0  0  0
   46.3660   48.1930   18.5790 C   0  0  0  0  0  0  0  0  0  0  0  0
   45.5760   48.6890   16.2620 C   0  0  0  0  0  0  0  0  0  0  0  0
   51.7990   52.9020   21.7770 C   0  0  0  0  0  0  0  0  0  0  0  0
   51.4070   54.1670   21.1420 N   0  0  0  0  0  0  0  0  0  0  0  0
   50.4460   54.1260   20.8360 H   0  0  0  0  0  0  0  0  0  0  0  0
   52.3050   54.4760   20.0000 C   0  0  0  0  0  0  0  0  0  0  0  0
   52.1730   56.0000   19.8020 C   0  0  0  0  0  0  0  0  0  0  0  0
   51.7120   56.5440   21.1690 C   0  0  1  0  0  0  0  0  0  0  0  0
   51.6040   55.3020   22.0800 C   0  0  0  0  0  0  0  0  0  0  0  0
   52.7290   57.5120   21.7180 C   0  0  0  0  0  0  0  0  0  0  0  0
   53.7640   57.0960   22.2080 O   0  0  0  0  0  0  0  0  0  0  0  0
   52.5160   58.7110   21.6700 O   0  0  0  0  0  0  0  0  0  0  0  0
  1  2  1  0  0  0  0
  1  3  1  0  0  0  0
  3 13  1  0  0  0  0
  4  3  2  0  0  0  0
  6  7  1  1  0  0  0
  6  5  1  0  0  0  0
  6  1  1  0  0  0  0
  7  8  1  0  0  0  0
  9 10  1  0  0  0  0
  9  8  1  0  0  0  0
 10 11  1  0  0  0  0
 12 10  1  0  0  0  0
 14 13  1  0  0  0  0
 14 19  1  0  0  0  0
 15 14  1  0  0  0  0
 16 14  1  0  0  0  0
 17 16  1  0  0  0  0
 17 18  1  0  0  0  0
 18 20  1  1  0  0  0
 18 19  1  0  0  0  0
 20 21  1  0  0  0  0
 22 20  2  0  0  0  0
M  END
>  <MODEL>
2

>  <REMARK>
  Name = ZINC62133494
                            x       y       z     vdW  Elec       q    Type
                         _______ _______ _______ _____ _____    ______ ____

>  <TORSDO>
F 8

>  <minimizedAffinity>
-7.0508124070351998

$$$$
ZINC62133494
 OpenBabel10211214483D

 22 22  0  0  1  0  0  0  0  0999 V2000
   50.7480   51.1420   20.9280 N   0  0  0  0  0  0  0  0  0  0  0  0
   50.0360   51.0640   21.5830 H   0  0  0  0  0  0  0  0  0  0  0  0
   51.6210   52.1670   21.0010 C   0  0  0  0  0  0  0  0  0  0  0  0
   52.5100   52.2630   20.1840 O   0  0  0  0  0  0  0  0  0  0  0  0
   50.8940   48.7430   20.4740 C   0  0  0  0  0  0  0  0  0  0  0  0
   50.8740   50.1460   19.8620 C   0  0  1  0  0  0  0  0  0  0  0  0
   49.6850   50.2690   18.9060 C   0  0  0  0  0  0  0  0  0  0  0  0
   49.1560   48.8730   18.5680 C   0  0  0  0  0  0  0  0  0  0  0  0
   47.6280   48.8780   18.6320 C   0  0  0  0  0  0  0  0  0  0  0  0
   47.0690   49.6340   17.4260 C   0  0  0  0  0  0  0  0  0  0  0  0
   45.5400   49.5690   17.4460 C   0  0  0  0  0  0  0  0  0  0  0  0
   47.5890   48.9930   16.1370 C   0  0  0  0  0  0  0  0  0  0  0  0
   51.4910   53.1910   22.0990 C   0  0  0  0  0  0  0  0  0  0  0  0
   51.5860   54.5390   21.5250 N   0  0  0  0  0  0  0  0  0  0  0  0
   52.3750   54.6010   20.8980 H   0  0  0  0  0  0  0  0  0  0  0  0
   51.6940   55.5560   22.6010 C   0  0  0  0  0  0  0  0  0  0  0  0
   51.2270   56.8710   21.9430 C   0  0  0  0  0  0  0  0  0  0  0  0
   50.3300   56.4350   20.7670 C   0  0  1  0  0  0  0  0  0  0  0  0
   50.3300   54.8910   20.8140 C   0  0  0  0  0  0  0  0  0  0  0  0
   48.9310   56.9650   20.9500 C   0  0  0  0  0  0  0  0  0  0  0  0
   48.0150   56.5090   20.2880 O   0  0  0  0  0  0  0  0  0  0  0  0
   48.7160   57.8500   21.7610 O   0  0  0  0  0  0  0  0  0  0  0  0
  1  3  1  0  0  0  0
  1  2  1  0  0  0  0
  3 13  1  0  0  0  0
  4  3  2  0  0  0  0
  6  7  1  1  0  0  0
  6  5  1  0  0  0  0
  6  1  1  0  0  0  0
  8  9  1  0  0  0  0
  8  7  1  0  0  0  0
 10 11  1  0  0  0  0
 10  9  1  0  0  0  0
 12 10  1  0  0  0  0
 14 13  1  0  0  0  0
 14 16  1  0  0  0  0
 15 14  1  0  0  0  0
 17 16  1  0  0  0  0
 18 19  1  0  0  0  0
 18 20  1  1  0  0  0
 18 17  1  0  0  0  0
 19 14  1  0  0  0  0
 20 22  1  0  0  0  0
 21 20  2  0  0  0  0
M  END
>  <MODEL>
3

>  <REMARK>
  Name = ZINC62133494
                            x       y       z     vdW  Elec       q    Type
                         _______ _______ _______ _____ _____    ______ ____

>  <TORSDO>
F 8

>  <minimizedAffinity>
-6.9966557545961701

$$$$
ZINC62133494
 OpenBabel10211214483D

 22 22  0  0  1  0  0  0  0  0999 V2000
   50.5580   52.4950   18.1790 N   0  0  0  0  0  0  0  0  0  0  0  0
   50.3590   52.8340   17.2910 H   0  0  0  0  0  0  0  0  0  0  0  0
   50.1950   51.2430   18.5190 C   0  0  0  0  0  0  0  0  0  0  0  0
   50.4450   50.8200   19.6270 O   0  0  0  0  0  0  0  0  0  0  0  0
   52.7450   53.3890   18.8100 C   0  0  0  0  0  0  0  0  0  0  0  0
   51.2540   53.3460   19.1470 C   0  0  1  0  0  0  0  0  0  0  0  0
   50.6760   54.7620   19.0900 C   0  0  0  0  0  0  0  0  0  0  0  0
   49.8630   55.0330   20.3580 C   0  0  0  0  0  0  0  0  0  0  0  0
   48.5800   55.7810   19.9910 C   0  0  0  0  0  0  0  0  0  0  0  0
   48.7280   57.2580   20.3580 C   0  0  0  0  0  0  0  0  0  0  0  0
   49.5510   57.3850   21.6410 C   0  0  0  0  0  0  0  0  0  0  0  0
   47.3420   57.8690   20.5780 C   0  0  0  0  0  0  0  0  0  0  0  0
   49.4800   50.3680   17.5220 C   0  0  0  0  0  0  0  0  0  0  0  0
   48.1100   50.1140   17.9870 N   0  0  0  0  0  0  0  0  0  0  0  0
   47.8460   50.7870   18.6910 H   0  0  0  0  0  0  0  0  0  0  0  0
   47.9890   48.7310   18.5160 C   0  0  0  0  0  0  0  0  0  0  0  0
   46.4810   48.4130   18.4320 C   0  0  0  0  0  0  0  0  0  0  0  0
   45.9340   49.3490   17.3350 C   0  0  1  0  0  0  0  0  0  0  0  0
   47.1580   50.1540   16.8470 C   0  0  0  0  0  0  0  0  0  0  0  0
   45.3500   48.5440   16.2020 C   0  0  0  0  0  0  0  0  0  0  0  0
   45.9640   48.4300   15.1550 O   0  0  0  0  0  0  0  0  0  0  0  0
   44.2650   48.0050   16.3350 O   0  0  0  0  0  0  0  0  0  0  0  0
  1  3  1  0  0  0  0
  2  1  1  0  0  0  0
  3  4  2  0  0  0  0
  5  6  1  0  0  0  0
  6  1  1  6  0  0  0
  7  6  1  0  0  0  0
  7  8  1  0  0  0  0
  9 10  1  0  0  0  0
  9  8  1  0  0  0  0
 10 12  1  0  0  0  0
 10 11  1  0  0  0  0
 13 14  1  0  0  0  0
 13  3  1  0  0  0  0
 14 16  1  0  0  0  0
 14 15  1  0  0  0  0
 17 16  1  0  0  0  0
 18 20  1  6  0  0  0
 18 17  1  0  0  0  0
 19 18  1  0  0  0  0
 19 14  1  0  0  0  0
 20 22  1  0  0  0  0
 21 20  2  0  0  0  0
M  END
>  <MODEL>
4

>  <REMARK>
  Name = ZINC62133494
                            x       y       z     vdW  Elec       q    Type
                         _______ _______ _______ _____ _____    ______ ____

>  <TORSDO>
F 8

>  <minimizedAffinity>
-6.9455111209523448

$$$$
ZINC62133494
 OpenBabel10211214483D

 22 22  0  0  1  0  0  0  0  0999 V2000
   49.1960   49.6790   18.2740 N   0  0  0  0  0  0  0  0  0  0  0  0
   49.2790   49.5330   19.2300 H   0  0  0  0  0  0  0  0  0  0  0  0
   50.0020   50.5650   17.6550 C   0  0  0  0  0  0  0  0  0  0  0  0
   49.8990   50.7460   16.4610 O   0  0  0  0  0  0  0  0  0  0  0  0
   48.6830   47.5050   17.2800 C   0  0  0  0  0  0  0  0  0  0  0  0
   48.1950   48.9370   17.5040 C   0  0  1  0  0  0  0  0  0  0  0  0
   46.8740   48.9120   18.2770 C   0  0  0  0  0  0  0  0  0  0  0  0
   45.7260   49.2860   17.3370 C   0  0  0  0  0  0  0  0  0  0  0  0
   44.6930   48.1570   17.3180 C   0  0  0  0  0  0  0  0  0  0  0  0
   44.5690   47.6020   15.8990 C   0  0  0  0  0  0  0  0  0  0  0  0
   44.8650   46.1010   15.9100 C   0  0  0  0  0  0  0  0  0  0  0  0
   45.5700   48.3120   14.9840 C   0  0  0  0  0  0  0  0  0  0  0  0
   51.0330   51.3270   18.4470 C   0  0  0  0  0  0  0  0  0  0  0  0
   50.3690   52.0740   19.5240 N   0  0  0  0  0  0  0  0  0  0  0  0
   49.6190   51.5280   19.9220 H   0  0  0  0  0  0  0  0  0  0  0  0
   49.8550   53.3720   19.0160 C   0  0  0  0  0  0  0  0  0  0  0  0
   49.7140   54.2540   20.2740 C   0  0  0  0  0  0  0  0  0  0  0  0
   50.6950   53.6510   21.2990 C   0  0  1  0  0  0  0  0  0  0  0  0
   51.3480   52.4540   20.5740 C   0  0  0  0  0  0  0  0  0  0  0  0
   51.7420   54.6660   21.6830 C   0  0  0  0  0  0  0  0  0  0  0  0
   51.8950   54.9700   22.8530 O   0  0  0  0  0  0  0  0  0  0  0  0
   52.4350   55.1820   20.8230 O   0  0  0  0  0  0  0  0  0  0  0  0
  1  2  1  0  0  0  0
  3  1  1  0  0  0  0
  3 13  1  0  0  0  0
  4  3  2  0  0  0  0
  6  5  1  1  0  0  0
  6  1  1  0  0  0  0
  6  7  1  0  0  0  0
  8  7  1  0  0  0  0
  9  8  1  0  0  0  0
 10 11  1  0  0  0  0
 10  9  1  0  0  0  0
 12 10  1  0  0  0  0
 13 14  1  0  0  0  0
 14 15  1  0  0  0  0
 14 19  1  0  0  0  0
 16 14  1  0  0  0  0
 16 17  1  0  0  0  0
 17 18  1  0  0  0  0
 18 20  1  6  0  0  0
 19 18  1  0  0  0  0
 20 21  1  0  0  0  0
 22 20  2  0  0  0  0
M  END
>  <MODEL>
5

>  <REMARK>
  Name = ZINC62133494
                            x       y       z     vdW  Elec       q    Type
                         _______ _______ _______ _____ _____    ______ ____

>  <TORSDO>
F 8

>  <minimizedAffinity>
-6.7493422017156943

$$$$
ZINC62133494
 OpenBabel10211214483D

 22 22  0  0  1  0  0  0  0  0999 V2000
   48.8550   55.9020   20.2870 N   0  0  0  0  0  0  0  0  0  0  0  0
   48.6890   55.3200   21.0460 H   0  0  0  0  0  0  0  0  0  0  0  0
   49.0270   55.3730   19.0590 C   0  0  0  0  0  0  0  0  0  0  0  0
   49.2330   56.0990   18.1110 O   0  0  0  0  0  0  0  0  0  0  0  0
   47.5010   57.9030   20.6660 C   0  0  0  0  0  0  0  0  0  0  0  0
   48.9160   57.3530   20.4760 C   0  0  1  0  0  0  0  0  0  0  0  0
   49.7590   57.6710   21.7130 C   0  0  0  0  0  0  0  0  0  0  0  0
   50.7060   56.5040   21.9990 C   0  0  0  0  0  0  0  0  0  0  0  0
   52.1420   57.0240   22.0940 C   0  0  0  0  0  0  0  0  0  0  0  0
   52.5940   57.5280   20.7220 C   0  0  0  0  0  0  0  0  0  0  0  0
   52.5330   56.3810   19.7120 C   0  0  0  0  0  0  0  0  0  0  0  0
   54.0300   58.0470   20.8180 C   0  0  0  0  0  0  0  0  0  0  0  0
   48.9630   53.8800   18.8650 C   0  0  0  0  0  0  0  0  0  0  0  0
   50.2970   53.3740   18.5170 N   0  0  0  0  0  0  0  0  0  0  0  0
   50.7600   54.0060   17.8810 H   0  0  0  0  0  0  0  0  0  0  0  0
   50.1990   52.0160   17.9220 C   0  0  0  0  0  0  0  0  0  0  0  0
   51.5980   51.3990   18.1290 C   0  0  0  0  0  0  0  0  0  0  0  0
   52.2010   52.1620   19.3250 C   0  0  1  0  0  0  0  0  0  0  0  0
   51.1150   53.1780   19.7420 C   0  0  0  0  0  0  0  0  0  0  0  0
   52.4950   51.2130   20.4590 C   0  0  0  0  0  0  0  0  0  0  0  0
   53.1000   50.1780   20.2460 O   0  0  0  0  0  0  0  0  0  0  0  0
   52.1270   51.4830   21.5900 O   0  0  0  0  0  0  0  0  0  0  0  0
  1  2  1  0  0  0  0
  3  1  1  0  0  0  0
  4  3  2  0  0  0  0
  6  1  1  1  0  0  0
  6  5  1  0  0  0  0
  6  7  1  0  0  0  0
  7  8  1  0  0  0  0
  8  9  1  0  0  0  0
 10 12  1  0  0  0  0
 10  9  1  0  0  0  0
 11 10  1  0  0  0  0
 13  3  1  0  0  0  0
 14 13  1  0  0  0  0
 14 19  1  0  0  0  0
 15 14  1  0  0  0  0
 16 17  1  0  0  0  0
 16 14  1  0  0  0  0
 17 18  1  0  0  0  0
 18 19  1  0  0  0  0
 18 20  1  1  0  0  0
 20 22  1  0  0  0  0
 21 20  2  0  0  0  0
M  END
>  <MODEL>
6

>  <REMARK>
  Name = ZINC62133494
                            x       y       z     vdW  Elec       q    Type
                         _______ _______ _______ _____ _____    ______ ____

>  <TORSDO>
F 8

>  <minimizedAffinity>
-6.6443543777370131

$$$$
ZINC62133494
 OpenBabel10211214483D

 22 22  0  0  1  0  0  0  0  0999 V2000
   50.5390   56.0880   21.9200 N   0  0  0  0  0  0  0  0  0  0  0  0
   49.7130   55.6170   21.7270 H   0  0  0  0  0  0  0  0  0  0  0  0
   51.6360   55.3980   22.2940 C   0  0  0  0  0  0  0  0  0  0  0  0
   52.6680   55.9860   22.5340 O   0  0  0  0  0  0  0  0  0  0  0  0
   51.3050   57.9290   20.5050 C   0  0  0  0  0  0  0  0  0  0  0  0
   50.5950   57.5470   21.8050 C   0  0  1  0  0  0  0  0  0  0  0  0
   49.1730   58.1120   21.7950 C   0  0  0  0  0  0  0  0  0  0  0  0
   48.2990   57.2780   20.8560 C   0  0  0  0  0  0  0  0  0  0  0  0
   47.8230   58.1500   19.6940 C   0  0  0  0  0  0  0  0  0  0  0  0
   47.6660   57.2890   18.4400 C   0  0  0  0  0  0  0  0  0  0  0  0
   48.8780   56.3650   18.3010 C   0  0  0  0  0  0  0  0  0  0  0  0
   47.5700   58.1920   17.2090 C   0  0  0  0  0  0  0  0  0  0  0  0
   51.5780   53.8970   22.4120 C   0  0  0  0  0  0  0  0  0  0  0  0
   50.9520   53.3350   21.2070 N   0  0  0  0  0  0  0  0  0  0  0  0
   50.0190   53.7000   21.0910 H   0  0  0  0  0  0  0  0  0  0  0  0
   50.9280   51.8520   21.2780 C   0  0  0  0  0  0  0  0  0  0  0  0
   50.7970   51.3950   19.8100 C   0  0  0  0  0  0  0  0  0  0  0  0
   51.3550   52.5640   18.9740 C   0  0  1  0  0  0  0  0  0  0  0  0
   51.7780   53.6300   20.0070 C   0  0  0  0  0  0  0  0  0  0  0  0
   52.5480   52.1110   18.1690 C   0  0  0  0  0  0  0  0  0  0  0  0
   53.3980   52.9170   17.8350 O   0  0  0  0  0  0  0  0  0  0  0  0
   52.6610   50.9380   17.8560 O   0  0  0  0  0  0  0  0  0  0  0  0
  1  3  1  0  0  0  0
  2  1  1  0  0  0  0
  3 13  1  0  0  0  0
  3  4  2  0  0  0  0
  6  5  1  6  0  0  0
  6  1  1  0  0  0  0
  7  6  1  0  0  0  0
  8  7  1  0  0  0  0
  9  8  1  0  0  0  0
 10  9  1  0  0  0  0
 11 10  1  0  0  0  0
 12 10  1  0  0  0  0
 14 16  1  0  0  0  0
 14 13  1  0  0  0  0
 15 14  1  0  0  0  0
 17 16  1  0  0  0  0
 18 20  1  1  0  0  0
 18 17  1  0  0  0  0
 18 19  1  0  0  0  0
 19 14  1  0  0  0  0
 21 20  2  0  0  0  0
 22 20  1  0  0  0  0
M  END
>  <MODEL>
7

>  <REMARK>
  Name = ZINC62133494
                            x       y       z     vdW  Elec       q    Type
                         _______ _______ _______ _____ _____    ______ ____

>  <TORSDO>
F 8

>  <minimizedAffinity>
-6.6272341540264446

$$$$
ZINC62133494
 OpenBabel10211214483D

 22 22  0  0  1  0  0  0  0  0999 V2000
   47.0210   48.6200   18.1190 N   0  0  0  0  0  0  0  0  0  0  0  0
   46.5640   49.3180   18.6150 H   0  0  0  0  0  0  0  0  0  0  0  0
   48.3360   48.4020   18.3180 C   0  0  0  0  0  0  0  0  0  0  0  0
   48.9060   47.5300   17.6990 O   0  0  0  0  0  0  0  0  0  0  0  0
   44.9710   47.3270   17.7860 C   0  0  0  0  0  0  0  0  0  0  0  0
   46.2810   47.8040   17.1540 C   0  0  1  0  0  0  0  0  0  0  0  0
   45.9720   48.6400   15.9090 C   0  0  0  0  0  0  0  0  0  0  0  0
   46.8820   48.2000   14.7610 C   0  0  0  0  0  0  0  0  0  0  0  0
   47.6340   49.4140   14.2130 C   0  0  0  0  0  0  0  0  0  0  0  0
   48.7500   49.8040   15.1830 C   0  0  0  0  0  0  0  0  0  0  0  0
   48.5460   51.2490   15.6420 C   0  0  0  0  0  0  0  0  0  0  0  0
   50.1040   49.6790   14.4810 C   0  0  0  0  0  0  0  0  0  0  0  0
   49.0970   49.2420   19.3120 C   0  0  0  0  0  0  0  0  0  0  0  0
   50.4950   49.3630   18.8800 N   0  0  0  0  0  0  0  0  0  0  0  0
   50.7060   48.6790   18.1690 H   0  0  0  0  0  0  0  0  0  0  0  0
   51.4120   49.2100   20.0390 C   0  0  0  0  0  0  0  0  0  0  0  0
   52.7210   49.8940   19.5930 C   0  0  0  0  0  0  0  0  0  0  0  0
   52.2980   50.8970   18.5010 C   0  0  1  0  0  0  0  0  0  0  0  0
   50.7670   50.7350   18.3780 C   0  0  0  0  0  0  0  0  0  0  0  0
   52.6450   52.3040   18.9170 C   0  0  0  0  0  0  0  0  0  0  0  0
   52.4760   52.6580   20.0710 O   0  0  0  0  0  0  0  0  0  0  0  0
   53.0970   53.0870   18.0990 O   0  0  0  0  0  0  0  0  0  0  0  0
  1  3  1  0  0  0  0
  1  2  1  0  0  0  0
  3 13  1  0  0  0  0
  4  3  2  0  0  0  0
  6  7  1  1  0  0  0
  6  5  1  0  0  0  0
  6  1  1  0  0  0  0
  8  7  1  0  0  0  0
  9  8  1  0  0  0  0
  9 10  1  0  0  0  0
 10 11  1  0  0  0  0
 12 10  1  0  0  0  0
 14 13  1  0  0  0  0
 14 16  1  0  0  0  0
 15 14  1  0  0  0  0
 17 16  1  0  0  0  0
 18 20  1  1  0  0  0
 18 17  1  0  0  0  0
 19 18  1  0  0  0  0
 19 14  1  0  0  0  0
 20 21  1  0  0  0  0
 22 20  2  0  0  0  0
M  END
>  <MODEL>
8

>  <REMARK>
  Name = ZINC62133494
                            x       y       z     vdW  Elec       q    Type
                         _______ _______ _______ _____ _____    ______ ____

>  <TORSDO>
F 8

>  <minimizedAffinity>
-6.6222877785383316

$$$$
ZINC62133494
 OpenBabel10211214483D

 22 22  0  0  1  0  0  0  0  0999 V2000
   48.5550   51.5580   17.9020 N   0  0  0  0  0  0  0  0  0  0  0  0
   47.7470   51.5800   18.4390 H   0  0  0  0  0  0  0  0  0  0  0  0
   49.1200   50.3760   17.5840 C   0  0  0  0  0  0  0  0  0  0  0  0
   50.1280   50.3480   16.9130 O   0  0  0  0  0  0  0  0  0  0  0  0
   48.0820   53.6900   16.8030 C   0  0  0  0  0  0  0  0  0  0  0  0
   49.1590   52.8080   17.4370 C   0  0  1  0  0  0  0  0  0  0  0  0
   49.7880   53.5420   18.6230 C   0  0  0  0  0  0  0  0  0  0  0  0
   48.8190   54.6110   19.1340 C   0  0  0  0  0  0  0  0  0  0  0  0
   49.3860   55.2490   20.4030 C   0  0  0  0  0  0  0  0  0  0  0  0
   49.1100   56.7530   20.3860 C   0  0  0  0  0  0  0  0  0  0  0  0
   49.6640   57.3880   21.6620 C   0  0  0  0  0  0  0  0  0  0  0  0
   47.6010   56.9930   20.3090 C   0  0  0  0  0  0  0  0  0  0  0  0
   48.4970   49.0890   18.0630 C   0  0  0  0  0  0  0  0  0  0  0  0
   47.0330   49.2060   18.0120 N   0  0  0  0  0  0  0  0  0  0  0  0
   46.7320   50.0600   18.4560 H   0  0  0  0  0  0  0  0  0  0  0  0
   46.3960   48.0290   18.6550 C   0  0  0  0  0  0  0  0  0  0  0  0
   44.9730   47.9830   18.0600 C   0  0  0  0  0  0  0  0  0  0  0  0
   45.0780   48.7240   16.7120 C   0  0  1  0  0  0  0  0  0  0  0  0
   46.5570   49.1560   16.6050 C   0  0  0  0  0  0  0  0  0  0  0  0
   44.7180   47.8010   15.5760 C   0  0  0  0  0  0  0  0  0  0  0  0
   43.6490   47.2160   15.5810 O   0  0  0  0  0  0  0  0  0  0  0  0
   45.4960   47.6410   14.6510 O   0  0  0  0  0  0  0  0  0  0  0  0
  1  2  1  0  0  0  0
  3  1  1  0  0  0  0
  3 13  1  0  0  0  0
  4  3  2  0  0  0  0
  6  5  1  1  0  0  0
  6  1  1  0  0  0  0
  6  7  1  0  0  0  0
  7  8  1  0  0  0  0
  8  9  1  0  0  0  0
 10  9  1  0  0  0  0
 10 11  1  0  0  0  0
 12 10  1  0  0  0  0
 14 13  1  0  0  0  0
 14 15  1  0  0  0  0
 14 16  1  0  0  0  0
 17 16  1  0  0  0  0
 18 20  1  1  0  0  0
 18 17  1  0  0  0  0
 19 18  1  0  0  0  0
 19 14  1  0  0  0  0
 20 21  1  0  0  0  0
 22 20  2  0  0  0  0
M  END
>  <MODEL>
9

>  <REMARK>
  Name = ZINC62133494
                            x       y       z     vdW  Elec       q    Type
                         _______ _______ _______ _____ _____    ______ ____

>  <TORSDO>
F 8

>  <minimizedAffinity>
-6.5475976213585865

$$$$
ZINC44860540
 OpenBabel10211214503D

 22 21  0  0  1  0  0  0  0  0999 V2000
   51.4840   53.8610   20.0580 C   0  0  0  0  0  0  0  0  0  0  0  0
   50.9760   54.9140   20.7280 N   0  0  0  0  0  0  0  0  0  0  0  0
   50.1940   54.7990   21.2900 H   0  0  0  0  0  0  0  0  0  0  0  0
   52.4630   54.0040   19.3570 O   0  0  0  0  0  0  0  0  0  0  0  0
   50.8360   52.5070   20.1800 C   0  0  2  0  0  0  0  0  0  0  0  0
   51.8060   51.5400   20.8070 C   0  0  0  0  0  0  0  0  0  0  0  0
   52.4190   50.3450   19.9400 S   0  0  0  0  0  0  0  0  0  0  0  0
   52.1580   51.6820   22.1010 N   0  0  0  0  0  0  0  0  0  0  0  0
   52.8000   51.0750   22.4980 H   0  0  0  0  0  0  0  0  0  0  0  0
   51.7680   52.3940   22.6340 H   0  0  0  0  0  0  0  0  0  0  0  0
   50.4400   52.0040   18.7900 C   0  0  0  0  0  0  0  0  0  0  0  0
   48.5120   52.1310   17.2050 C   0  0  0  0  0  0  0  0  0  0  0  0
   49.3620   52.9190   18.2050 C   0  0  0  0  0  0  0  0  0  0  0  0
   51.6070   56.2320   20.6110 C   0  0  2  0  0  0  0  0  0  0  0  0
   52.2920   56.5780   21.9070 C   0  0  0  0  0  0  0  0  0  0  0  0
   52.1530   55.8660   22.8730 O   0  0  0  0  0  0  0  0  0  0  0  0
   53.0570   57.6780   21.9890 O   0  0  0  0  0  0  0  0  0  0  0  0
   54.0880   57.8270   21.0110 C   0  0  0  0  0  0  0  0  0  0  0  0
   50.5390   57.2820   20.3010 C   0  0  0  0  0  0  0  0  0  0  0  0
   49.2930   57.0070   21.1450 C   0  0  0  0  0  0  0  0  0  0  0  0
   48.1060   56.7160   20.2250 C   0  0  0  0  0  0  0  0  0  0  0  0
   48.9820   58.2320   22.0080 C   0  0  0  0  0  0  0  0  0  0  0  0
  1  5  1  0  0  0  0
  1  2  1  0  0  0  0
  2  3  1  0  0  0  0
  4  1  2  0  0  0  0
  5 11  1  6  0  0  0
  5  6  1  0  0  0  0
  6  8  1  0  0  0  0
  7  6  2  0  0  0  0
  8  9  1  0  0  0  0
  8 10  1  0  0  0  0
 12 13  1  0  0  0  0
 13 11  1  0  0  0  0
 14 19  1  1  0  0  0
 14  2  1  0  0  0  0
 14 15  1  0  0  0  0
 15 17  1  0  0  0  0
 15 16  2  0  0  0  0
 18 17  1  0  0  0  0
 19 20  1  0  0  0  0
 20 22  1  0  0  0  0
 21 20  1  0  0  0  0
M  END
>  <MODEL>
1

>  <REMARK>
  Name = ZINC44860540
                            x       y       z     vdW  Elec       q    Type
                         _______ _______ _______ _____ _____    ______ ____

>  <TORSDO>
F 10

>  <minimizedAffinity>
-6.36856080376484

$$$$
ZINC44860540
 OpenBabel10211214503D

 22 21  0  0  1  0  0  0  0  0999 V2000
   52.0960   53.2230   19.2840 C   0  0  0  0  0  0  0  0  0  0  0  0
   51.6400   54.0140   20.2740 N   0  0  0  0  0  0  0  0  0  0  0  0
   51.1500   53.6280   21.0170 H   0  0  0  0  0  0  0  0  0  0  0  0
   52.7100   53.7050   18.3560 O   0  0  0  0  0  0  0  0  0  0  0  0
   51.8440   51.7380   19.3290 C   0  0  2  0  0  0  0  0  0  0  0  0
   51.4240   51.2570   17.9650 C   0  0  0  0  0  0  0  0  0  0  0  0
   49.8790   51.2650   17.5540 S   0  0  0  0  0  0  0  0  0  0  0  0
   52.3520   50.8210   17.0890 N   0  0  0  0  0  0  0  0  0  0  0  0
   52.0770   50.3640   16.2800 H   0  0  0  0  0  0  0  0  0  0  0  0
   53.2950   50.9660   17.2680 H   0  0  0  0  0  0  0  0  0  0  0  0
   50.7340   51.4400   20.3400 C   0  0  0  0  0  0  0  0  0  0  0  0
   50.3930   48.9780   20.6010 C   0  0  0  0  0  0  0  0  0  0  0  0
   51.1120   50.2060   21.1630 C   0  0  0  0  0  0  0  0  0  0  0  0
   51.8860   55.4590   20.2310 C   0  0  2  0  0  0  0  0  0  0  0  0
   52.1420   55.9670   21.6250 C   0  0  0  0  0  0  0  0  0  0  0  0
   52.0510   55.2160   22.5680 O   0  0  0  0  0  0  0  0  0  0  0  0
   52.4710   57.2530   21.8210 O   0  0  0  0  0  0  0  0  0  0  0  0
   53.7010   57.7030   21.2480 C   0  0  0  0  0  0  0  0  0  0  0  0
   50.6620   56.1660   19.6460 C   0  0  0  0  0  0  0  0  0  0  0  0
   49.4240   55.8100   20.4720 C   0  0  0  0  0  0  0  0  0  0  0  0
   48.4450   55.0130   19.6080 C   0  0  0  0  0  0  0  0  0  0  0  0
   48.7480   57.0950   20.9570 C   0  0  0  0  0  0  0  0  0  0  0  0
  1  5  1  0  0  0  0
  1  2  1  0  0  0  0
  2  3  1  0  0  0  0
  4  1  2  0  0  0  0
  5  6  1  6  0  0  0
  5 11  1  0  0  0  0
  7  6  2  0  0  0  0
  8 10  1  0  0  0  0
  8  6  1  0  0  0  0
  9  8  1  0  0  0  0
 11 13  1  0  0  0  0
 12 13  1  0  0  0  0
 14 19  1  1  0  0  0
 14  2  1  0  0  0  0
 14 15  1  0  0  0  0
 15 17  1  0  0  0  0
 15 16  2  0  0  0  0
 18 17  1  0  0  0  0
 19 20  1  0  0  0  0
 20 22  1  0  0  0  0
 21 20  1  0  0  0  0
M  END
>  <MODEL>
2

>  <REMARK>
  Name = ZINC44860540
                            x       y       z     vdW  Elec       q    Type
                         _______ _______ _______ _____ _____    ______ ____

>  <TORSDO>
F 10

>  <minimizedAffinity>
-6.2660409974189095

$$$$
ZINC44860540
 OpenBabel10211214503D

 22 21  0  0  1  0  0  0  0  0999 V2000
   51.2050   56.0300   19.6930 C   0  0  0  0  0  0  0  0  0  0  0  0
   50.5270   54.8660   19.6870 N   0  0  0  0  0  0  0  0  0  0  0  0
   49.7610   54.7470   20.2700 H   0  0  0  0  0  0  0  0  0  0  0  0
   52.1630   56.1780   18.9630 O   0  0  0  0  0  0  0  0  0  0  0  0
   50.7740   57.1480   20.6060 C   0  0  2  0  0  0  0  0  0  0  0  0
   51.8090   57.3440   21.6840 C   0  0  0  0  0  0  0  0  0  0  0  0
   52.9050   58.4990   21.5400 S   0  0  0  0  0  0  0  0  0  0  0  0
   51.8110   56.5450   22.7700 N   0  0  0  0  0  0  0  0  0  0  0  0
   51.0080   56.0620   23.0180 H   0  0  0  0  0  0  0  0  0  0  0  0
   52.6170   56.4540   23.3040 H   0  0  0  0  0  0  0  0  0  0  0  0
   49.4310   56.7930   21.2470 C   0  0  0  0  0  0  0  0  0  0  0  0
   47.3610   58.0200   20.5700 C   0  0  0  0  0  0  0  0  0  0  0  0
   48.6110   58.0700   21.4520 C   0  0  0  0  0  0  0  0  0  0  0  0
   50.9460   53.7780   18.7980 C   0  0  2  0  0  0  0  0  0  0  0  0
   49.7280   53.1040   18.2200 C   0  0  0  0  0  0  0  0  0  0  0  0
   48.6410   53.6190   18.3360 O   0  0  0  0  0  0  0  0  0  0  0  0
   49.8510   51.9320   17.5780 O   0  0  0  0  0  0  0  0  0  0  0  0
   48.9020   51.6550   16.5450 C   0  0  0  0  0  0  0  0  0  0  0  0
   51.7660   52.7580   19.5910 C   0  0  0  0  0  0  0  0  0  0  0  0
   50.9780   52.3230   20.8290 C   0  0  0  0  0  0  0  0  0  0  0  0
   51.6000   52.9530   22.0770 C   0  0  0  0  0  0  0  0  0  0  0  0
   51.0230   50.7980   20.9500 C   0  0  0  0  0  0  0  0  0  0  0  0
  2  1  1  0  0  0  0
  2  3  1  0  0  0  0
  4  1  2  0  0  0  0
  5  1  1  1  0  0  0
  5 11  1  0  0  0  0
  5  6  1  0  0  0  0
  6  8  1  0  0  0  0
  7  6  2  0  0  0  0
  8  9  1  0  0  0  0
  8 10  1  0  0  0  0
 11 13  1  0  0  0  0
 12 13  1  0  0  0  0
 14 15  1  1  0  0  0
 14 19  1  0  0  0  0
 14  2  1  0  0  0  0
 15 16  2  0  0  0  0
 17 15  1  0  0  0  0
 18 17  1  0  0  0  0
 19 20  1  0  0  0  0
 20 22  1  0  0  0  0
 20 21  1  0  0  0  0
M  END
>  <MODEL>
3

>  <REMARK>
  Name = ZINC44860540
                            x       y       z     vdW  Elec       q    Type
                         _______ _______ _______ _____ _____    ______ ____

>  <TORSDO>
F 10

>  <minimizedAffinity>
-6.1853840966555698

$$$$
ZINC44860540
 OpenBabel10211214503D

 22 21  0  0  1  0  0  0  0  0999 V2000
   49.0430   52.2880   17.5890 C   0  0  0  0  0  0  0  0  0  0  0  0
   49.8090   52.6440   18.6380 N   0  0  0  0  0  0  0  0  0  0  0  0
   50.1860   51.9630   19.2170 H   0  0  0  0  0  0  0  0  0  0  0  0
   48.5730   53.1390   16.8640 O   0  0  0  0  0  0  0  0  0  0  0  0
   48.7710   50.8320   17.3140 C   0  0  2  0  0  0  0  0  0  0  0  0
   49.5470   50.3950   16.0990 C   0  0  0  0  0  0  0  0  0  0  0  0
   48.7730   49.9030   14.7900 S   0  0  0  0  0  0  0  0  0  0  0  0
   50.8950   50.4210   16.1150 N   0  0  0  0  0  0  0  0  0  0  0  0
   51.3690   50.4430   16.9600 H   0  0  0  0  0  0  0  0  0  0  0  0
   51.3900   50.4160   15.2800 H   0  0  0  0  0  0  0  0  0  0  0  0
   47.2750   50.6310   17.0640 C   0  0  0  0  0  0  0  0  0  0  0  0
   45.3330   49.1170   17.4910 C   0  0  0  0  0  0  0  0  0  0  0  0
   46.7760   49.4390   17.8840 C   0  0  0  0  0  0  0  0  0  0  0  0
   50.0750   54.0610   18.9050 C   0  0  2  0  0  0  0  0  0  0  0  0
   51.5450   54.2540   19.1740 C   0  0  0  0  0  0  0  0  0  0  0  0
   52.3640   53.7640   18.4340 O   0  0  0  0  0  0  0  0  0  0  0  0
   51.9440   54.9700   20.2370 O   0  0  0  0  0  0  0  0  0  0  0  0
   52.4950   56.2630   19.9790 C   0  0  0  0  0  0  0  0  0  0  0  0
   49.2690   54.5100   20.1240 C   0  0  0  0  0  0  0  0  0  0  0  0
   48.4500   55.7510   19.7660 C   0  0  0  0  0  0  0  0  0  0  0  0
   48.8170   56.2150   18.3550 C   0  0  0  0  0  0  0  0  0  0  0  0
   48.7540   56.8690   20.7660 C   0  0  0  0  0  0  0  0  0  0  0  0
  1  2  1  0  0  0  0
  2  3  1  0  0  0  0
  4  1  2  0  0  0  0
  5  6  1  6  0  0  0
  5  1  1  0  0  0  0
  6  8  1  0  0  0  0
  7  6  2  0  0  0  0
  8  9  1  0  0  0  0
 10  8  1  0  0  0  0
 11  5  1  0  0  0  0
 11 13  1  0  0  0  0
 12 13  1  0  0  0  0
 14  2  1  1  0  0  0
 14 15  1  0  0  0  0
 14 19  1  0  0  0  0
 15 17  1  0  0  0  0
 16 15  2  0  0  0  0
 18 17  1  0  0  0  0
 20 19  1  0  0  0  0
 20 22  1  0  0  0  0
 21 20  1  0  0  0  0
M  END
>  <MODEL>
4

>  <REMARK>
  Name = ZINC44860540
                            x       y       z     vdW  Elec       q    Type
                         _______ _______ _______ _____ _____    ______ ____

>  <TORSDO>
F 10

>  <minimizedAffinity>
-6.1127082251206133

$$$$
ZINC44860540
 OpenBabel10211214503D

 22 21  0  0  1  0  0  0  0  0999 V2000
   50.4890   53.2070   19.4170 C   0  0  0  0  0  0  0  0  0  0  0  0
   50.7270   52.6680   18.2060 N   0  0  0  0  0  0  0  0  0  0  0  0
   50.8060   53.2410   17.4270 H   0  0  0  0  0  0  0  0  0  0  0  0
   50.3910   52.4910   20.3920 O   0  0  0  0  0  0  0  0  0  0  0  0
   50.3440   54.7000   19.5620 C   0  0  2  0  0  0  0  0  0  0  0  0
   51.3780   55.2140   20.5300 C   0  0  0  0  0  0  0  0  0  0  0  0
   52.4340   56.3190   20.0600 S   0  0  0  0  0  0  0  0  0  0  0  0
   51.4140   54.7420   21.7920 N   0  0  0  0  0  0  0  0  0  0  0  0
   51.5840   55.3460   22.5310 H   0  0  0  0  0  0  0  0  0  0  0  0
   51.2700   53.7970   21.9610 H   0  0  0  0  0  0  0  0  0  0  0  0
   48.9450   55.0280   20.0890 C   0  0  0  0  0  0  0  0  0  0  0  0
   48.4150   57.3380   20.8800 C   0  0  0  0  0  0  0  0  0  0  0  0
   48.5530   56.4400   19.6490 C   0  0  0  0  0  0  0  0  0  0  0  0
   50.8690   51.2160   18.0650 C   0  0  2  0  0  0  0  0  0  0  0  0
   52.3290   50.8630   17.9450 C   0  0  0  0  0  0  0  0  0  0  0  0
   52.8670   50.8760   16.8630 O   0  0  0  0  0  0  0  0  0  0  0  0
   53.0320   50.5340   19.0400 O   0  0  0  0  0  0  0  0  0  0  0  0
   52.4650   49.5450   19.9030 C   0  0  0  0  0  0  0  0  0  0  0  0
   50.1270   50.7510   16.8110 C   0  0  0  0  0  0  0  0  0  0  0  0
   48.8050   50.0950   17.2150 C   0  0  0  0  0  0  0  0  0  0  0  0
   47.6860   51.1380   17.1850 C   0  0  0  0  0  0  0  0  0  0  0  0
   48.9310   49.5220   18.6290 C   0  0  0  0  0  0  0  0  0  0  0  0
  1  4  2  0  0  0  0
  2  1  1  0  0  0  0
  3  2  1  0  0  0  0
  5  1  1  1  0  0  0
  5 11  1  0  0  0  0
  5  6  1  0  0  0  0
  6  8  1  0  0  0  0
  7  6  2  0  0  0  0
  8 10  1  0  0  0  0
  8  9  1  0  0  0  0
 13 11  1  0  0  0  0
 13 12  1  0  0  0  0
 14 19  1  6  0  0  0
 14  2  1  0  0  0  0
 15 14  1  0  0  0  0
 15 17  1  0  0  0  0
 16 15  2  0  0  0  0
 17 18  1  0  0  0  0
 19 20  1  0  0  0  0
 20 22  1  0  0  0  0
 21 20  1  0  0  0  0
M  END
>  <MODEL>
5

>  <REMARK>
  Name = ZINC44860540
                            x       y       z     vdW  Elec       q    Type
                         _______ _______ _______ _____ _____    ______ ____

>  <TORSDO>
F 10

>  <minimizedAffinity>
-5.862042536891436

$$$$
ZINC44860540
 OpenBabel10211214503D

 22 21  0  0  1  0  0  0  0  0999 V2000
   50.2250   52.1170   19.1820 C   0  0  0  0  0  0  0  0  0  0  0  0
   50.3420   53.0950   20.1000 N   0  0  0  0  0  0  0  0  0  0  0  0
   50.3170   52.8790   21.0460 H   0  0  0  0  0  0  0  0  0  0  0  0
   50.2570   52.3870   18.0000 O   0  0  0  0  0  0  0  0  0  0  0  0
   50.0540   50.6860   19.6240 C   0  0  2  0  0  0  0  0  0  0  0  0
   51.2810   50.2430   20.3770 C   0  0  0  0  0  0  0  0  0  0  0  0
   52.6600   50.0190   19.5990 S   0  0  0  0  0  0  0  0  0  0  0  0
   51.2170   50.0360   21.7080 N   0  0  0  0  0  0  0  0  0  0  0  0
   50.8430   49.2120   22.0520 H   0  0  0  0  0  0  0  0  0  0  0  0
   51.5460   50.7140   22.3200 H   0  0  0  0  0  0  0  0  0  0  0  0
   49.8590   49.7940   18.3960 C   0  0  0  0  0  0  0  0  0  0  0  0
   47.4310   49.5880   17.8390 C   0  0  0  0  0  0  0  0  0  0  0  0
   48.6020   48.9400   18.5810 C   0  0  0  0  0  0  0  0  0  0  0  0
   50.5080   54.4870   19.6710 C   0  0  2  0  0  0  0  0  0  0  0  0
   51.9670   54.8580   19.7250 C   0  0  0  0  0  0  0  0  0  0  0  0
   52.7000   54.5630   18.8100 O   0  0  0  0  0  0  0  0  0  0  0  0
   52.4540   55.5160   20.7890 O   0  0  0  0  0  0  0  0  0  0  0  0
   53.0690   56.7830   20.5440 C   0  0  0  0  0  0  0  0  0  0  0  0
   49.7130   55.4060   20.6010 C   0  0  0  0  0  0  0  0  0  0  0  0
   49.2190   56.6220   19.8160 C   0  0  0  0  0  0  0  0  0  0  0  0
   48.0850   57.3020   20.5870 C   0  0  0  0  0  0  0  0  0  0  0  0
   48.7060   56.1710   18.4460 C   0  0  0  0  0  0  0  0  0  0  0  0
  1  5  1  0  0  0  0
  1  2  1  0  0  0  0
  2  3  1  0  0  0  0
  4  1  2  0  0  0  0
  5 11  1  6  0  0  0
  5  6  1  0  0  0  0
  6  8  1  0  0  0  0
  7  6  2  0  0  0  0
  8  9  1  0  0  0  0
  8 10  1  0  0  0  0
 11 13  1  0  0  0  0
 12 13  1  0  0  0  0
 14 15  1  1  0  0  0
 14  2  1  0  0  0  0
 14 19  1  0  0  0  0
 15 17  1  0  0  0  0
 16 15  2  0  0  0  0
 18 17  1  0  0  0  0
 20 21  1  0  0  0  0
 20 19  1  0  0  0  0
 22 20  1  0  0  0  0
M  END
>  <MODEL>
6

>  <REMARK>
  Name = ZINC44860540
                            x       y       z     vdW  Elec       q    Type
                         _______ _______ _______ _____ _____    ______ ____

>  <TORSDO>
F 10

>  <minimizedAffinity>
-5.7771649080786354

$$$$
ZINC44860540
 OpenBabel10211214503D

 22 21  0  0  1  0  0  0  0  0999 V2000
   50.9500   53.6540   18.8360 C   0  0  0  0  0  0  0  0  0  0  0  0
   50.0140   52.6890   18.7560 N   0  0  0  0  0  0  0  0  0  0  0  0
   49.1330   52.8360   19.1360 H   0  0  0  0  0  0  0  0  0  0  0  0
   52.0510   53.4710   18.3600 O   0  0  0  0  0  0  0  0  0  0  0  0
   50.6310   54.9600   19.5150 C   0  0  2  0  0  0  0  0  0  0  0  0
   51.6940   55.2680   20.5370 C   0  0  0  0  0  0  0  0  0  0  0  0
   51.5780   54.6750   22.0170 S   0  0  0  0  0  0  0  0  0  0  0  0
   52.7450   56.0440   20.2040 N   0  0  0  0  0  0  0  0  0  0  0  0
   53.4470   55.6920   19.6360 H   0  0  0  0  0  0  0  0  0  0  0  0
   52.7990   56.9560   20.5330 H   0  0  0  0  0  0  0  0  0  0  0  0
   49.2710   54.8540   20.2090 C   0  0  0  0  0  0  0  0  0  0  0  0
   48.5930   57.1470   20.9360 C   0  0  0  0  0  0  0  0  0  0  0  0
   48.4220   56.0770   19.8550 C   0  0  0  0  0  0  0  0  0  0  0  0
   50.3240   51.4190   18.0930 C   0  0  2  0  0  0  0  0  0  0  0  0
   49.5790   51.3380   16.7870 C   0  0  0  0  0  0  0  0  0  0  0  0
   49.8370   50.4600   15.9970 O   0  0  0  0  0  0  0  0  0  0  0  0
   48.6300   52.2420   16.4980 O   0  0  0  0  0  0  0  0  0  0  0  0
   47.2970   51.9400   16.9150 C   0  0  0  0  0  0  0  0  0  0  0  0
   49.9000   50.2580   18.9950 C   0  0  0  0  0  0  0  0  0  0  0  0
   50.8920   50.1220   20.1520 C   0  0  0  0  0  0  0  0  0  0  0  0
   52.3130   50.0050   19.5960 C   0  0  0  0  0  0  0  0  0  0  0  0
   50.5580   48.8690   20.9660 C   0  0  0  0  0  0  0  0  0  0  0  0
  2  1  1  0  0  0  0
  2  3  1  0  0  0  0
  4  1  2  0  0  0  0
  5  1  1  1  0  0  0
  5 11  1  0  0  0  0
  5  6  1  0  0  0  0
  6  7  2  0  0  0  0
  8 10  1  0  0  0  0
  8  6  1  0  0  0  0
  9  8  1  0  0  0  0
 13 11  1  0  0  0  0
 13 12  1  0  0  0  0
 14 15  1  1  0  0  0
 14  2  1  0  0  0  0
 14 19  1  0  0  0  0
 16 15  2  0  0  0  0
 17 15  1  0  0  0  0
 17 18  1  0  0  0  0
 19 20  1  0  0  0  0
 20 22  1  0  0  0  0
 21 20  1  0  0  0  0
M  END
>  <MODEL>
7

>  <REMARK>
  Name = ZINC44860540
                            x       y       z     vdW  Elec       q    Type
                         _______ _______ _______ _____ _____    ______ ____

>  <TORSDO>
F 10

>  <minimizedAffinity>
-5.7668493798413714

$$$$
ZINC44860540
 OpenBabel10211214503D

 22 21  0  0  1  0  0  0  0  0999 V2000
   49.7630   51.3390   17.8290 C   0  0  0  0  0  0  0  0  0  0  0  0
   49.3130   50.0720   17.9130 N   0  0  0  0  0  0  0  0  0  0  0  0
   49.7320   49.4480   18.5260 H   0  0  0  0  0  0  0  0  0  0  0  0
   49.2380   52.1200   17.0630 O   0  0  0  0  0  0  0  0  0  0  0  0
   50.9180   51.7870   18.6860 C   0  0  2  0  0  0  0  0  0  0  0  0
   52.1100   50.9030   18.4260 C   0  0  0  0  0  0  0  0  0  0  0  0
   52.7390   50.0380   19.6130 S   0  0  0  0  0  0  0  0  0  0  0  0
   52.6460   50.8410   17.1900 N   0  0  0  0  0  0  0  0  0  0  0  0
   52.1940   51.2640   16.4440 H   0  0  0  0  0  0  0  0  0  0  0  0
   53.4840   50.3730   17.0480 H   0  0  0  0  0  0  0  0  0  0  0  0
   50.5240   51.6910   20.1620 C   0  0  0  0  0  0  0  0  0  0  0  0
   51.6260   53.1200   21.8910 C   0  0  0  0  0  0  0  0  0  0  0  0
   50.5630   53.0860   20.7910 C   0  0  0  0  0  0  0  0  0  0  0  0
   48.1880   49.6360   17.0790 C   0  0  2  0  0  0  0  0  0  0  0  0
   47.0380   49.2260   17.9610 C   0  0  0  0  0  0  0  0  0  0  0  0
   47.2520   48.6630   19.0090 O   0  0  0  0  0  0  0  0  0  0  0  0
   45.7770   49.4850   17.5830 O   0  0  0  0  0  0  0  0  0  0  0  0
   44.8550   48.3920   17.6050 C   0  0  0  0  0  0  0  0  0  0  0  0
   48.6220   48.4480   16.2190 C   0  0  0  0  0  0  0  0  0  0  0  0
   48.8870   48.9230   14.7890 C   0  0  0  0  0  0  0  0  0  0  0  0
   50.3490   49.3560   14.6570 C   0  0  0  0  0  0  0  0  0  0  0  0
   47.9730   50.1070   14.4680 C   0  0  0  0  0  0  0  0  0  0  0  0
  1  2  1  0  0  0  0
  2  3  1  0  0  0  0
  4  1  2  0  0  0  0
  5  1  1  1  0  0  0
  5 11  1  0  0  0  0
  6  5  1  0  0  0  0
  6  7  2  0  0  0  0
  8  6  1  0  0  0  0
  9  8  1  0  0  0  0
 10  8  1  0  0  0  0
 11 13  1  0  0  0  0
 13 12  1  0  0  0  0
 14 19  1  1  0  0  0
 14  2  1  0  0  0  0
 14 15  1  0  0  0  0
 15 16  2  0  0  0  0
 17 18  1  0  0  0  0
 17 15  1  0  0  0  0
 20 19  1  0  0  0  0
 21 20  1  0  0  0  0
 22 20  1  0  0  0  0
M  END
>  <MODEL>
8

>  <REMARK>
  Name = ZINC44860540
                            x       y       z     vdW  Elec       q    Type
                         _______ _______ _______ _____ _____    ______ ____

>  <TORSDO>
F 10

>  <minimizedAffinity>
-5.7516124051567852

$$$$
ZINC44860540
 OpenBabel10211214503D

 22 21  0  0  1  0  0  0  0  0999 V2000
   49.2600   51.2490   17.4110 C   0  0  0  0  0  0  0  0  0  0  0  0
   50.1390   51.4600   18.4090 N   0  0  0  0  0  0  0  0  0  0  0  0
   50.4500   50.7150   18.9470 H   0  0  0  0  0  0  0  0  0  0  0  0
   48.8720   52.1810   16.7380 O   0  0  0  0  0  0  0  0  0  0  0  0
   48.7580   49.8560   17.1300 C   0  0  2  0  0  0  0  0  0  0  0  0
   48.8190   49.5900   15.6480 C   0  0  0  0  0  0  0  0  0  0  0  0
   47.5800   48.9020   14.9080 S   0  0  0  0  0  0  0  0  0  0  0  0
   49.9170   49.9330   14.9460 N   0  0  0  0  0  0  0  0  0  0  0  0
   50.7880   49.9190   15.3710 H   0  0  0  0  0  0  0  0  0  0  0  0
   49.8350   50.1940   14.0140 H   0  0  0  0  0  0  0  0  0  0  0  0
   47.3120   49.7280   17.6130 C   0  0  0  0  0  0  0  0  0  0  0  0
   45.9530   47.8840   18.6140 C   0  0  0  0  0  0  0  0  0  0  0  0
   47.2430   48.6980   18.7430 C   0  0  0  0  0  0  0  0  0  0  0  0
   50.6280   52.8150   18.6830 C   0  0  2  0  0  0  0  0  0  0  0  0
   52.1060   52.7670   18.9680 C   0  0  0  0  0  0  0  0  0  0  0  0
   52.8970   53.1040   18.1180 O   0  0  0  0  0  0  0  0  0  0  0  0
   52.5460   52.3510   20.1660 O   0  0  0  0  0  0  0  0  0  0  0  0
   52.7170   50.9430   20.3410 C   0  0  0  0  0  0  0  0  0  0  0  0
   49.8920   53.3870   19.8950 C   0  0  0  0  0  0  0  0  0  0  0  0
   49.8220   54.9110   19.7780 C   0  0  0  0  0  0  0  0  0  0  0  0
   50.4940   55.5480   20.9970 C   0  0  0  0  0  0  0  0  0  0  0  0
   48.3580   55.3510   19.7140 C   0  0  0  0  0  0  0  0  0  0  0  0
  1  2  1  0  0  0  0
  2  3  1  0  0  0  0
  4  1  2  0  0  0  0
  5  6  1  6  0  0  0
  5  1  1  0  0  0  0
  5 11  1  0  0  0  0
  7  6  2  0  0  0  0
  8  9  1  0  0  0  0
  8  6  1  0  0  0  0
 10  8  1  0  0  0  0
 11 13  1  0  0  0  0
 12 13  1  0  0  0  0
 14  2  1  1  0  0  0
 14 15  1  0  0  0  0
 14 19  1  0  0  0  0
 15 17  1  0  0  0  0
 16 15  2  0  0  0  0
 17 18  1  0  0  0  0
 20 19  1  0  0  0  0
 20 21  1  0  0  0  0
 22 20  1  0  0  0  0
M  END
>  <MODEL>
9

>  <REMARK>
  Name = ZINC44860540
                            x       y       z     vdW  Elec       q    Type
                         _______ _______ _______ _____ _____    ______ ____

>  <TORSDO>
F 10

>  <minimizedAffinity>
-5.7460784448909887

$$$$
ZINC25974402
 OpenBabel10211214513D

 21 21  0  0  1  0  0  0  0  0999 V2000
   52.5120   53.1750   18.9910 C   0  0  0  0  0  0  0  0  0  0  0  0
   51.7420   52.1990   19.5120 N   0  0  0  0  0  0  0  0  0  0  0  0
   51.1000   52.4090   20.3800 H   0  0  0  0  0  0  0  0  0  0  0  0
   53.2190   52.9430   18.0340 O   0  0  0  0  0  0  0  0  0  0  0  0
   51.7600   50.8580   18.9230 C   0  0  1  0  0  0  0  0  0  0  0  0
   52.4020   49.8770   19.9080 C   0  0  0  0  0  0  0  0  0  0  0  0
   50.3490   50.4200   18.6260 C   0  0  0  0  0  0  0  0  0  0  0  0
   49.8980   49.1920   19.0730 C   0  0  0  0  0  0  0  0  0  0  0  0
   48.6040   48.7890   18.8010 C   0  0  0  0  0  0  0  0  0  0  0  0
   47.7600   49.6160   18.0830 C   0  0  0  0  0  0  0  0  0  0  0  0
   46.3490   49.1780   17.7850 C   0  0  0  0  0  0  0  0  0  0  0  0
   48.2110   50.8450   17.6360 C   0  0  0  0  0  0  0  0  0  0  0  0
   47.2920   51.7450   16.8510 C   0  0  0  0  0  0  0  0  0  0  0  0
   49.5040   51.2480   17.9130 C   0  0  0  0  0  0  0  0  0  0  0  0
   52.4940   54.5540   19.5980 C   0  0  0  0  0  0  0  0  0  0  0  0
   52.1940   54.4550   21.0140 O   0  0  0  0  0  0  0  0  0  0  0  0
   51.7520   55.5740   21.6260 C   0  0  0  0  0  0  0  0  0  0  0  0
   52.4450   56.1250   22.4580 O   0  0  0  0  0  0  0  0  0  0  0  0
   48.7030   57.8660   21.4320 C   0  0  0  0  0  0  0  0  0  0  0  0
   50.0550   57.3000   21.7810 C   0  0  0  0  0  0  0  0  0  0  0  0
   50.4330   56.1250   21.2860 C   0  0  0  0  0  0  0  0  0  0  0  0
  1  2  1  0  0  0  0
  1 15  1  0  0  0  0
  2  3  1  0  0  0  0
  4  1  2  0  0  0  0
  5  7  1  1  0  0  0
  5  2  1  0  0  0  0
  5  6  1  0  0  0  0
  7  8  2  0  0  0  0
  9  8  1  0  0  0  0
 10  9  2  0  0  0  0
 11 10  1  0  0  0  0
 12 14  2  0  0  0  0
 12 10  1  0  0  0  0
 13 12  1  0  0  0  0
 14  7  1  0  0  0  0
 15 16  1  0  0  0  0
 16 17  1  0  0  0  0
 17 18  2  0  0  0  0
 19 20  1  0  0  0  0
 21 17  1  0  0  0  0
 21 20  2  0  0  0  0
M  END
>  <MODEL>
1

>  <REMARK>
  Name = ZINC25974402
                            x       y       z     vdW  Elec       q    Type
                         _______ _______ _______ _____ _____    ______ ____

>  <TORSDO>
F 6

>  <minimizedAffinity>
-8.1461561950512476

$$$$
ZINC25974402
 OpenBabel10211214513D

 21 21  0  0  1  0  0  0  0  0999 V2000
   51.3340   51.2670   20.9220 C   0  0  0  0  0  0  0  0  0  0  0  0
   50.7850   52.3480   20.3350 N   0  0  0  0  0  0  0  0  0  0  0  0
   49.8710   52.2420   19.7320 H   0  0  0  0  0  0  0  0  0  0  0  0
   52.3420   51.3830   21.5870 O   0  0  0  0  0  0  0  0  0  0  0  0
   51.4040   53.6650   20.4990 C   0  0  1  0  0  0  0  0  0  0  0  0
   52.3800   53.9180   19.3470 C   0  0  0  0  0  0  0  0  0  0  0  0
   50.3360   54.7280   20.4950 C   0  0  0  0  0  0  0  0  0  0  0  0
   49.1980   54.5600   19.7270 C   0  0  0  0  0  0  0  0  0  0  0  0
   48.2170   55.5340   19.7220 C   0  0  0  0  0  0  0  0  0  0  0  0
   48.3740   56.6770   20.4860 C   0  0  0  0  0  0  0  0  0  0  0  0
   47.3060   57.7390   20.4810 C   0  0  0  0  0  0  0  0  0  0  0  0
   49.5130   56.8440   21.2530 C   0  0  0  0  0  0  0  0  0  0  0  0
   49.6850   58.0900   22.0840 C   0  0  0  0  0  0  0  0  0  0  0  0
   50.4900   55.8670   21.2610 C   0  0  0  0  0  0  0  0  0  0  0  0
   50.6970   49.9120   20.7520 C   0  0  0  0  0  0  0  0  0  0  0  0
   50.6730   49.5620   19.3430 O   0  0  0  0  0  0  0  0  0  0  0  0
   49.5020   49.7210   18.6930 C   0  0  0  0  0  0  0  0  0  0  0  0
   49.3280   50.6940   17.9860 O   0  0  0  0  0  0  0  0  0  0  0  0
   46.1110   47.9670   18.5820 C   0  0  0  0  0  0  0  0  0  0  0  0
   47.2020   48.9950   18.4320 C   0  0  0  0  0  0  0  0  0  0  0  0
   48.4380   48.7180   18.8400 C   0  0  0  0  0  0  0  0  0  0  0  0
  1  4  2  0  0  0  0
  2  5  1  0  0  0  0
  2  1  1  0  0  0  0
  3  2  1  0  0  0  0
  5  6  1  6  0  0  0
  7  5  1  0  0  0  0
  7 14  2  0  0  0  0
  8  7  1  0  0  0  0
  9  8  2  0  0  0  0
  9 10  1  0  0  0  0
 10 12  2  0  0  0  0
 11 10  1  0  0  0  0
 12 14  1  0  0  0  0
 12 13  1  0  0  0  0
 15  1  1  0  0  0  0
 16 15  1  0  0  0  0
 17 21  1  0  0  0  0
 17 16  1  0  0  0  0
 18 17  2  0  0  0  0
 20 19  1  0  0  0  0
 20 21  2  0  0  0  0
M  END
>  <MODEL>
2

>  <REMARK>
  Name = ZINC25974402
                            x       y       z     vdW  Elec       q    Type
                         _______ _______ _______ _____ _____    ______ ____

>  <TORSDO>
F 6

>  <minimizedAffinity>
-7.9228829045927078

$$$$
ZINC25974402
 OpenBabel10211214513D

 21 21  0  0  1  0  0  0  0  0999 V2000
   51.5990   51.9770   18.9610 C   0  0  0  0  0  0  0  0  0  0  0  0
   50.5490   51.2880   19.4500 N   0  0  0  0  0  0  0  0  0  0  0  0
   49.8320   51.7810   20.1210 H   0  0  0  0  0  0  0  0  0  0  0  0
   52.3900   51.4320   18.2200 O   0  0  0  0  0  0  0  0  0  0  0  0
   50.3630   49.8810   19.0870 C   0  0  1  0  0  0  0  0  0  0  0  0
   50.5580   49.0040   20.3270 C   0  0  0  0  0  0  0  0  0  0  0  0
   48.9720   49.6810   18.5440 C   0  0  0  0  0  0  0  0  0  0  0  0
   48.5260   50.4510   17.4860 C   0  0  0  0  0  0  0  0  0  0  0  0
   47.2500   50.2680   16.9870 C   0  0  0  0  0  0  0  0  0  0  0  0
   46.4190   49.3140   17.5460 C   0  0  0  0  0  0  0  0  0  0  0  0
   45.0280   49.1140   17.0040 C   0  0  0  0  0  0  0  0  0  0  0  0
   46.8660   48.5440   18.6050 C   0  0  0  0  0  0  0  0  0  0  0  0
   45.9610   47.5040   19.2150 C   0  0  0  0  0  0  0  0  0  0  0  0
   48.1440   48.7240   19.0990 C   0  0  0  0  0  0  0  0  0  0  0  0
   51.7900   53.4240   19.3350 C   0  0  0  0  0  0  0  0  0  0  0  0
   51.6920   53.5690   20.7760 O   0  0  0  0  0  0  0  0  0  0  0  0
   51.4410   54.8060   21.2510 C   0  0  0  0  0  0  0  0  0  0  0  0
   52.2640   55.3680   21.9460 O   0  0  0  0  0  0  0  0  0  0  0  0
   48.6360   57.3900   21.0430 C   0  0  0  0  0  0  0  0  0  0  0  0
   49.9370   56.7050   21.3740 C   0  0  0  0  0  0  0  0  0  0  0  0
   50.1720   55.4740   20.9280 C   0  0  0  0  0  0  0  0  0  0  0  0
  1 15  1  0  0  0  0
  1  2  1  0  0  0  0
  2  3  1  0  0  0  0
  4  1  2  0  0  0  0
  5  7  1  1  0  0  0
  5  2  1  0  0  0  0
  5  6  1  0  0  0  0
  7 14  2  0  0  0  0
  8  7  1  0  0  0  0
  9  8  2  0  0  0  0
  9 10  1  0  0  0  0
 10 12  2  0  0  0  0
 11 10  1  0  0  0  0
 12 14  1  0  0  0  0
 12 13  1  0  0  0  0
 15 16  1  0  0  0  0
 16 17  1  0  0  0  0
 17 18  2  0  0  0  0
 19 20  1  0  0  0  0
 21 17  1  0  0  0  0
 21 20  2  0  0  0  0
M  END
>  <MODEL>
3

>  <REMARK>
  Name = ZINC25974402
                            x       y       z     vdW  Elec       q    Type
                         _______ _______ _______ _____ _____    ______ ____

>  <TORSDO>
F 6

>  <minimizedAffinity>
-7.77567520884456

$$$$
ZINC25974402
 OpenBabel10211214513D

 21 21  0  0  1  0  0  0  0  0999 V2000
   51.9290   52.8150   19.2430 C   0  0  0  0  0  0  0  0  0  0  0  0
   50.6520   53.1300   19.5340 N   0  0  0  0  0  0  0  0  0  0  0  0
   50.1090   52.5660   20.3070 H   0  0  0  0  0  0  0  0  0  0  0  0
   52.5280   53.4370   18.3910 O   0  0  0  0  0  0  0  0  0  0  0  0
   49.9850   54.2220   18.8220 C   0  0  1  0  0  0  0  0  0  0  0  0
   48.6540   53.7240   18.2540 C   0  0  0  0  0  0  0  0  0  0  0  0
   49.7290   55.3620   19.7740 C   0  0  0  0  0  0  0  0  0  0  0  0
   50.6650   55.6770   20.7420 C   0  0  0  0  0  0  0  0  0  0  0  0
   50.4320   56.7220   21.6160 C   0  0  0  0  0  0  0  0  0  0  0  0
   49.2620   57.4530   21.5210 C   0  0  0  0  0  0  0  0  0  0  0  0
   49.0070   58.5930   22.4730 C   0  0  0  0  0  0  0  0  0  0  0  0
   48.3260   57.1380   20.5530 C   0  0  0  0  0  0  0  0  0  0  0  0
   47.0500   57.9340   20.4510 C   0  0  0  0  0  0  0  0  0  0  0  0
   48.5630   56.0950   19.6770 C   0  0  0  0  0  0  0  0  0  0  0  0
   52.6150   51.6910   19.9760 C   0  0  0  0  0  0  0  0  0  0  0  0
   51.6180   50.8580   20.6250 O   0  0  0  0  0  0  0  0  0  0  0  0
   51.4740   49.6010   20.1590 C   0  0  0  0  0  0  0  0  0  0  0  0
   52.4560   48.9190   19.9390 O   0  0  0  0  0  0  0  0  0  0  0  0
   48.0190   48.9580   18.6630 C   0  0  0  0  0  0  0  0  0  0  0  0
   49.3960   49.5180   18.9100 C   0  0  0  0  0  0  0  0  0  0  0  0
   50.1310   49.0550   19.9180 C   0  0  0  0  0  0  0  0  0  0  0  0
  1  2  1  0  0  0  0
  1 15  1  0  0  0  0
  2  3  1  0  0  0  0
  4  1  2  0  0  0  0
  5  6  1  1  0  0  0
  5  2  1  0  0  0  0
  5  7  1  0  0  0  0
  7  8  1  0  0  0  0
  8  9  2  0  0  0  0
 10  9  1  0  0  0  0
 10 11  1  0  0  0  0
 12 10  2  0  0  0  0
 13 12  1  0  0  0  0
 14  7  2  0  0  0  0
 14 12  1  0  0  0  0
 15 16  1  0  0  0  0
 17 16  1  0  0  0  0
 18 17  2  0  0  0  0
 19 20  1  0  0  0  0
 20 21  2  0  0  0  0
 21 17  1  0  0  0  0
M  END
>  <MODEL>
4

>  <REMARK>
  Name = ZINC25974402
                            x       y       z     vdW  Elec       q    Type
                         _______ _______ _______ _____ _____    ______ ____

>  <TORSDO>
F 6

>  <minimizedAffinity>
-7.7738196094145149

$$$$
ZINC25974402
 OpenBabel10211214513D

 21 21  0  0  1  0  0  0  0  0999 V2000
   50.4510   50.3650   19.6710 C   0  0  0  0  0  0  0  0  0  0  0  0
   50.3160   51.6390   19.2530 N   0  0  0  0  0  0  0  0  0  0  0  0
   49.5560   51.8940   18.5000 H   0  0  0  0  0  0  0  0  0  0  0  0
   51.2890   50.0840   20.5020 O   0  0  0  0  0  0  0  0  0  0  0  0
   51.1830   52.6850   19.8010 C   0  0  1  0  0  0  0  0  0  0  0  0
   52.3120   52.9830   18.8120 C   0  0  0  0  0  0  0  0  0  0  0  0
   50.3760   53.9360   20.0330 C   0  0  0  0  0  0  0  0  0  0  0  0
   49.1790   54.1200   19.3660 C   0  0  0  0  0  0  0  0  0  0  0  0
   48.4380   55.2680   19.5780 C   0  0  0  0  0  0  0  0  0  0  0  0
   48.8930   56.2310   20.4590 C   0  0  0  0  0  0  0  0  0  0  0  0
   48.0860   57.4820   20.6910 C   0  0  0  0  0  0  0  0  0  0  0  0
   50.0900   56.0470   21.1270 C   0  0  0  0  0  0  0  0  0  0  0  0
   50.5880   57.0980   22.0860 C   0  0  0  0  0  0  0  0  0  0  0  0
   50.8280   54.8970   20.9170 C   0  0  0  0  0  0  0  0  0  0  0  0
   49.5600   49.2890   19.1070 C   0  0  0  0  0  0  0  0  0  0  0  0
   48.9170   49.7770   17.9000 O   0  0  0  0  0  0  0  0  0  0  0  0
   47.5890   49.5680   17.7860 C   0  0  0  0  0  0  0  0  0  0  0  0
   46.9410   50.2050   16.9800 O   0  0  0  0  0  0  0  0  0  0  0  0
   44.9790   47.2180   19.2870 C   0  0  0  0  0  0  0  0  0  0  0  0
   45.6570   48.2420   18.4140 C   0  0  0  0  0  0  0  0  0  0  0  0
   46.9270   48.5690   18.6380 C   0  0  0  0  0  0  0  0  0  0  0  0
  1  4  2  0  0  0  0
  2  1  1  0  0  0  0
  2  5  1  0  0  0  0
  3  2  1  0  0  0  0
  5  6  1  6  0  0  0
  5  7  1  0  0  0  0
  7 14  2  0  0  0  0
  8  9  2  0  0  0  0
  8  7  1  0  0  0  0
  9 10  1  0  0  0  0
 10 11  1  0  0  0  0
 10 12  2  0  0  0  0
 12 13  1  0  0  0  0
 14 12  1  0  0  0  0
 15  1  1  0  0  0  0
 16 15  1  0  0  0  0
 17 16  1  0  0  0  0
 17 21  1  0  0  0  0
 18 17  2  0  0  0  0
 20 21  2  0  0  0  0
 20 19  1  0  0  0  0
M  END
>  <MODEL>
5

>  <REMARK>
  Name = ZINC25974402
                            x       y       z     vdW  Elec       q    Type
                         _______ _______ _______ _____ _____    ______ ____

>  <TORSDO>
F 6

>  <minimizedAffinity>
-7.5934767270186354

$$$$
ZINC25974402
 OpenBabel10211214513D

 21 21  0  0  1  0  0  0  0  0999 V2000
   44.4810   46.4790   16.0130 C   0  0  0  0  0  0  0  0  0  0  0  0
   45.0950   46.5170   17.2120 N   0  0  0  0  0  0  0  0  0  0  0  0
   45.7570   45.6940   17.5180 H   0  0  0  0  0  0  0  0  0  0  0  0
   43.7500   47.3860   15.6760 O   0  0  0  0  0  0  0  0  0  0  0  0
   44.8780   47.6540   18.1100 C   0  0  1  0  0  0  0  0  0  0  0  0
   44.7760   47.1530   19.5520 C   0  0  0  0  0  0  0  0  0  0  0  0
   46.0320   48.6150   17.9920 C   0  0  0  0  0  0  0  0  0  0  0  0
   45.9160   49.7420   17.1990 C   0  0  0  0  0  0  0  0  0  0  0  0
   46.9740   50.6240   17.0900 C   0  0  0  0  0  0  0  0  0  0  0  0
   48.1500   50.3800   17.7760 C   0  0  0  0  0  0  0  0  0  0  0  0
   49.3050   51.3410   17.6590 C   0  0  0  0  0  0  0  0  0  0  0  0
   48.2660   49.2540   18.5700 C   0  0  0  0  0  0  0  0  0  0  0  0
   49.5480   48.9870   19.3170 C   0  0  0  0  0  0  0  0  0  0  0  0
   47.2050   48.3740   18.6810 C   0  0  0  0  0  0  0  0  0  0  0  0
   44.7040   45.3080   15.0890 C   0  0  0  0  0  0  0  0  0  0  0  0
   43.9820   45.5270   13.8490 O   0  0  0  0  0  0  0  0  0  0  0  0
   44.6940   45.4530   12.7060 C   0  0  0  0  0  0  0  0  0  0  0  0
   45.1410   44.3840   12.3370 O   0  0  0  0  0  0  0  0  0  0  0  0
   45.8020   48.9440   11.6220 C   0  0  0  0  0  0  0  0  0  0  0  0
   45.5610   47.7030   12.4430 C   0  0  0  0  0  0  0  0  0  0  0  0
   44.9290   46.6630   11.9060 C   0  0  0  0  0  0  0  0  0  0  0  0
  1  2  1  0  0  0  0
  2  3  1  0  0  0  0
  4  1  2  0  0  0  0
  5  2  1  1  0  0  0
  5  6  1  0  0  0  0
  7  5  1  0  0  0  0
  7 14  2  0  0  0  0
  8  7  1  0  0  0  0
  9  8  2  0  0  0  0
  9 10  1  0  0  0  0
 10 12  2  0  0  0  0
 11 10  1  0  0  0  0
 12 14  1  0  0  0  0
 12 13  1  0  0  0  0
 15  1  1  0  0  0  0
 16 15  1  0  0  0  0
 17 16  1  0  0  0  0
 18 17  2  0  0  0  0
 19 20  1  0  0  0  0
 21 20  2  0  0  0  0
 21 17  1  0  0  0  0
M  END
>  <MODEL>
6

>  <REMARK>
  Name = ZINC25974402
                            x       y       z     vdW  Elec       q    Type
                         _______ _______ _______ _____ _____    ______ ____

>  <TORSDO>
F 6

>  <minimizedAffinity>
-7.3352902035957195

$$$$
ZINC25974402
 OpenBabel10211214513D

 21 21  0  0  1  0  0  0  0  0999 V2000
   49.8830   49.8310   19.2660 C   0  0  0  0  0  0  0  0  0  0  0  0
   50.4540   51.0400   19.4300 N   0  0  0  0  0  0  0  0  0  0  0  0
   50.4600   51.7630   18.6010 H   0  0  0  0  0  0  0  0  0  0  0  0
   49.8770   49.0340   20.1800 O   0  0  0  0  0  0  0  0  0  0  0  0
   51.0690   51.3930   20.7120 C   0  0  1  0  0  0  0  0  0  0  0  0
   52.5630   51.0660   20.6690 C   0  0  0  0  0  0  0  0  0  0  0  0
   50.8840   52.8660   20.9700 C   0  0  0  0  0  0  0  0  0  0  0  0
   51.6700   53.5070   21.9100 C   0  0  0  0  0  0  0  0  0  0  0  0
   51.5010   54.8580   22.1470 C   0  0  0  0  0  0  0  0  0  0  0  0
   50.5460   55.5690   21.4440 C   0  0  0  0  0  0  0  0  0  0  0  0
   50.3620   57.0420   21.7020 C   0  0  0  0  0  0  0  0  0  0  0  0
   49.7600   54.9280   20.5040 C   0  0  0  0  0  0  0  0  0  0  0  0
   48.7180   55.7030   19.7390 C   0  0  0  0  0  0  0  0  0  0  0  0
   49.9330   53.5780   20.2640 C   0  0  0  0  0  0  0  0  0  0  0  0
   49.2520   49.4680   17.9460 C   0  0  0  0  0  0  0  0  0  0  0  0
   47.8930   49.9780   17.9040 O   0  0  0  0  0  0  0  0  0  0  0  0
   46.8970   49.0700   17.9570 C   0  0  0  0  0  0  0  0  0  0  0  0
   46.7140   48.4270   18.9710 O   0  0  0  0  0  0  0  0  0  0  0  0
   45.6560   48.1380   14.4670 C   0  0  0  0  0  0  0  0  0  0  0  0
   46.5420   48.3550   15.6660 C   0  0  0  0  0  0  0  0  0  0  0  0
   46.0330   48.8590   16.7870 C   0  0  0  0  0  0  0  0  0  0  0  0
  1  2  1  0  0  0  0
  1  4  2  0  0  0  0
  3  2  1  0  0  0  0
  5  2  1  6  0  0  0
  5  7  1  0  0  0  0
  6  5  1  0  0  0  0
  7  8  2  0  0  0  0
  8  9  1  0  0  0  0
 10 11  1  0  0  0  0
 10  9  2  0  0  0  0
 12 10  1  0  0  0  0
 13 12  1  0  0  0  0
 14 12  2  0  0  0  0
 14  7  1  0  0  0  0
 15  1  1  0  0  0  0
 16 15  1  0  0  0  0
 16 17  1  0  0  0  0
 17 18  2  0  0  0  0
 19 20  1  0  0  0  0
 20 21  2  0  0  0  0
 21 17  1  0  0  0  0
M  END
>  <MODEL>
7

>  <REMARK>
  Name = ZINC25974402
                            x       y       z     vdW  Elec       q    Type
                         _______ _______ _______ _____ _____    ______ ____

>  <TORSDO>
F 6

>  <minimizedAffinity>
-7.2831125535050241

$$$$
ZINC25974402
 OpenBabel10211214513D

 21 21  0  0  1  0  0  0  0  0999 V2000
   49.7740   51.9090   18.1700 C   0  0  0  0  0  0  0  0  0  0  0  0
   50.2470   53.1450   18.4250 N   0  0  0  0  0  0  0  0  0  0  0  0
   50.0640   53.9620   17.7120 H   0  0  0  0  0  0  0  0  0  0  0  0
   49.9750   51.0080   18.9560 O   0  0  0  0  0  0  0  0  0  0  0  0
   51.0060   53.4000   19.6510 C   0  0  1  0  0  0  0  0  0  0  0  0
   52.4930   53.5350   19.3120 C   0  0  0  0  0  0  0  0  0  0  0  0
   50.5190   54.6760   20.2880 C   0  0  0  0  0  0  0  0  0  0  0  0
   51.2790   55.2960   21.2620 C   0  0  0  0  0  0  0  0  0  0  0  0
   50.8330   56.4660   21.8470 C   0  0  0  0  0  0  0  0  0  0  0  0
   49.6260   57.0170   21.4580 C   0  0  0  0  0  0  0  0  0  0  0  0
   49.1380   58.2920   22.0950 C   0  0  0  0  0  0  0  0  0  0  0  0
   48.8650   56.3960   20.4840 C   0  0  0  0  0  0  0  0  0  0  0  0
   47.5490   56.9950   20.0600 C   0  0  0  0  0  0  0  0  0  0  0  0
   49.3150   55.2280   19.8960 C   0  0  0  0  0  0  0  0  0  0  0  0
   48.9930   51.6470   16.9080 C   0  0  0  0  0  0  0  0  0  0  0  0
   49.6150   50.5620   16.1710 O   0  0  0  0  0  0  0  0  0  0  0  0
   48.8980   49.4290   16.0290 C   0  0  0  0  0  0  0  0  0  0  0  0
   48.9900   48.5440   16.8570 O   0  0  0  0  0  0  0  0  0  0  0  0
   46.0740   48.2360   13.7500 C   0  0  0  0  0  0  0  0  0  0  0  0
   46.9910   48.4050   14.9340 C   0  0  0  0  0  0  0  0  0  0  0  0
   48.0050   49.2640   14.8740 C   0  0  0  0  0  0  0  0  0  0  0  0
  1  2  1  0  0  0  0
  1  4  2  0  0  0  0
  3  2  1  0  0  0  0
  5  2  1  6  0  0  0
  5  7  1  0  0  0  0
  6  5  1  0  0  0  0
  7  8  1  0  0  0  0
  8  9  2  0  0  0  0
 10  9  1  0  0  0  0
 10 11  1  0  0  0  0
 12 10  2  0  0  0  0
 13 12  1  0  0  0  0
 14  7  2  0  0  0  0
 14 12  1  0  0  0  0
 15  1  1  0  0  0  0
 16 15  1  0  0  0  0
 17 16  1  0  0  0  0
 17 18  2  0  0  0  0
 19 20  1  0  0  0  0
 21 20  2  0  0  0  0
 21 17  1  0  0  0  0
M  END
>  <MODEL>
8

>  <REMARK>
  Name = ZINC25974402
                            x       y       z     vdW  Elec       q    Type
                         _______ _______ _______ _____ _____    ______ ____

>  <TORSDO>
F 6

>  <minimizedAffinity>
-7.2251420776779192

$$$$
ZINC25974402
 OpenBabel10211214513D

 21 21  0  0  1  0  0  0  0  0999 V2000
   47.9440   47.6360   16.1760 C   0  0  0  0  0  0  0  0  0  0  0  0
   48.3730   48.6780   15.4370 N   0  0  0  0  0  0  0  0  0  0  0  0
   47.7370   49.0850   14.6380 H   0  0  0  0  0  0  0  0  0  0  0  0
   48.6460   47.1880   17.0580 O   0  0  0  0  0  0  0  0  0  0  0  0
   49.6880   49.2690   15.6970 C   0  0  1  0  0  0  0  0  0  0  0  0
   50.3760   49.5890   14.3680 C   0  0  0  0  0  0  0  0  0  0  0  0
   49.5210   50.5370   16.4940 C   0  0  0  0  0  0  0  0  0  0  0  0
   50.2200   50.7090   17.6750 C   0  0  0  0  0  0  0  0  0  0  0  0
   50.0680   51.8710   18.4060 C   0  0  0  0  0  0  0  0  0  0  0  0
   49.2170   52.8640   17.9560 C   0  0  0  0  0  0  0  0  0  0  0  0
   49.0500   54.1320   18.7530 C   0  0  0  0  0  0  0  0  0  0  0  0
   48.5180   52.6930   16.7750 C   0  0  0  0  0  0  0  0  0  0  0  0
   47.5890   53.7740   16.2850 C   0  0  0  0  0  0  0  0  0  0  0  0
   48.6750   51.5310   16.0420 C   0  0  0  0  0  0  0  0  0  0  0  0
   46.5920   47.0280   15.9080 C   0  0  0  0  0  0  0  0  0  0  0  0
   45.5860   48.0750   15.8940 O   0  0  0  0  0  0  0  0  0  0  0  0
   45.3530   48.7160   17.0570 C   0  0  0  0  0  0  0  0  0  0  0  0
   45.8320   49.8170   17.2500 O   0  0  0  0  0  0  0  0  0  0  0  0
   44.2370   46.7090   20.1090 C   0  0  0  0  0  0  0  0  0  0  0  0
   45.0900   47.3560   19.0480 C   0  0  0  0  0  0  0  0  0  0  0  0
   44.5220   48.0850   18.0910 C   0  0  0  0  0  0  0  0  0  0  0  0
  1  4  2  0  0  0  0
  2  5  1  0  0  0  0
  2  1  1  0  0  0  0
  3  2  1  0  0  0  0
  5  6  1  6  0  0  0
  5  7  1  0  0  0  0
  7  8  1  0  0  0  0
  8  9  2  0  0  0  0
 10  9  1  0  0  0  0
 10 11  1  0  0  0  0
 12 10  2  0  0  0  0
 13 12  1  0  0  0  0
 14  7  2  0  0  0  0
 14 12  1  0  0  0  0
 15  1  1  0  0  0  0
 16 15  1  0  0  0  0
 16 17  1  0  0  0  0
 17 18  2  0  0  0  0
 17 21  1  0  0  0  0
 20 19  1  0  0  0  0
 21 20  2  0  0  0  0
M  END
>  <MODEL>
9

>  <REMARK>
  Name = ZINC25974402
                            x       y       z     vdW  Elec       q    Type
                         _______ _______ _______ _____ _____    ______ ____

>  <TORSDO>
F 6

>  <minimizedAffinity>
-7.2202140256174951

$$$$
ZINC54553577
 OpenBabel10211214513D

 20 20  0  0  0  0  0  0  0  0999 V2000
   50.5600   54.6460   20.7540 C   0  0  0  0  0  0  0  0  0  0  0  0
   49.4600   54.5600   19.9130 C   0  0  0  0  0  0  0  0  0  0  0  0
   48.5670   55.6100   19.8320 C   0  0  0  0  0  0  0  0  0  0  0  0
   48.7610   56.7560   20.5870 C   0  0  0  0  0  0  0  0  0  0  0  0
   49.8480   56.8610   21.4260 C   0  0  0  0  0  0  0  0  0  0  0  0
   50.7570   55.8020   21.5230 C   0  0  0  0  0  0  0  0  0  0  0  0
   47.7800   57.8950   20.4860 C   0  0  0  0  0  0  0  0  0  0  0  0
   48.1370   58.9010   21.3900 F   0  0  0  0  0  0  0  0  0  0  0  0
   46.4960   57.4310   20.7900 F   0  0  0  0  0  0  0  0  0  0  0  0
   47.7940   58.4100   19.1860 F   0  0  0  0  0  0  0  0  0  0  0  0
   51.9180   55.9030   22.4230 C   0  0  0  0  0  0  0  0  0  0  0  0
   51.9040   55.3320   23.5050 O   0  0  0  0  0  0  0  0  0  0  0  0
   52.8960   56.5580   22.0880 O   0  0  0  0  0  0  0  0  0  0  0  0
   51.4370   53.6150   20.8350 O   0  0  0  0  0  0  0  0  0  0  0  0
   50.9290   52.3670   21.3120 C   0  0  0  0  0  0  0  0  0  0  0  0
   52.0680   51.3490   21.3890 C   0  0  0  0  0  0  0  0  0  0  0  0
   50.5500   50.4330   19.7720 C   0  0  0  0  0  0  0  0  0  0  0  0
   51.6920   50.1370   20.6480 N   0  0  0  0  0  0  0  0  0  0  0  0
   51.4370   49.4100   21.3000 H   0  0  0  0  0  0  0  0  0  0  0  0
   52.8290   49.6880   19.8340 C   0  0  0  0  0  0  0  0  0  0  0  0
  1 14  1  0  0  0  0
  1  6  2  0  0  0  0
  2  1  1  0  0  0  0
  3  2  2  0  0  0  0
  3  4  1  0  0  0  0
  4  5  2  0  0  0  0
  5  6  1  0  0  0  0
  6 11  1  0  0  0  0
  7  4  1  0  0  0  0
  7  9  1  0  0  0  0
  7  8  1  0  0  0  0
 10  7  1  0  0  0  0
 11 12  1  0  0  0  0
 13 11  2  0  0  0  0
 14 15  1  0  0  0  0
 15 16  1  0  0  0  0
 17 18  1  0  0  0  0
 18 19  1  0  0  0  0
 18 16  1  0  0  0  0
 20 18  1  0  0  0  0
M  END
>  <MODEL>
1

>  <REMARK>
  Name = ZINC54553577
                            x       y       z     vdW  Elec       q    Type
                         _______ _______ _______ _____ _____    ______ ____

>  <TORSDO>
F 6

>  <minimizedAffinity>
-7.3648128285609467

$$$$
ZINC54553577
 OpenBabel10211214513D

 20 20  0  0  0  0  0  0  0  0999 V2000
   49.8000   54.3760   20.1100 C   0  0  0  0  0  0  0  0  0  0  0  0
   48.5500   54.6580   19.5780 C   0  0  0  0  0  0  0  0  0  0  0  0
   47.9530   55.8780   19.8230 C   0  0  0  0  0  0  0  0  0  0  0  0
   48.5940   56.8300   20.5990 C   0  0  0  0  0  0  0  0  0  0  0  0
   49.8350   56.5690   21.1360 C   0  0  0  0  0  0  0  0  0  0  0  0
   50.4490   55.3350   20.9010 C   0  0  0  0  0  0  0  0  0  0  0  0
   47.9310   58.1590   20.8570 C   0  0  0  0  0  0  0  0  0  0  0  0
   48.4160   58.6990   22.0510 F   0  0  0  0  0  0  0  0  0  0  0  0
   46.5480   57.9770   20.9560 F   0  0  0  0  0  0  0  0  0  0  0  0
   48.2120   59.0320   19.8010 F   0  0  0  0  0  0  0  0  0  0  0  0
   51.7740   55.0450   21.4760 C   0  0  0  0  0  0  0  0  0  0  0  0
   51.8610   54.4370   22.5330 O   0  0  0  0  0  0  0  0  0  0  0  0
   52.7860   55.4140   20.8950 O   0  0  0  0  0  0  0  0  0  0  0  0
   50.3870   53.1780   19.8710 O   0  0  0  0  0  0  0  0  0  0  0  0
   50.6340   52.8370   18.5050 C   0  0  0  0  0  0  0  0  0  0  0  0
   49.9680   51.4980   18.1840 C   0  0  0  0  0  0  0  0  0  0  0  0
   52.3070   51.0180   17.9540 C   0  0  0  0  0  0  0  0  0  0  0  0
   50.9810   50.4330   18.1910 N   0  0  0  0  0  0  0  0  0  0  0  0
   50.7730   49.7660   17.4630 H   0  0  0  0  0  0  0  0  0  0  0  0
   50.9700   49.7560   19.4940 C   0  0  0  0  0  0  0  0  0  0  0  0
  1  6  2  0  0  0  0
  2  3  2  0  0  0  0
  2  1  1  0  0  0  0
  3  4  1  0  0  0  0
  4  7  1  0  0  0  0
  4  5  2  0  0  0  0
  6  5  1  0  0  0  0
  6 11  1  0  0  0  0
  7  9  1  0  0  0  0
  7  8  1  0  0  0  0
 10  7  1  0  0  0  0
 11 12  1  0  0  0  0
 13 11  2  0  0  0  0
 14  1  1  0  0  0  0
 15 14  1  0  0  0  0
 16 18  1  0  0  0  0
 16 15  1  0  0  0  0
 17 18  1  0  0  0  0
 18 20  1  0  0  0  0
 19 18  1  0  0  0  0
M  END
>  <MODEL>
2

>  <REMARK>
  Name = ZINC54553577
                            x       y       z     vdW  Elec       q    Type
                         _______ _______ _______ _____ _____    ______ ____

>  <TORSDO>
F 6

>  <minimizedAffinity>
-7.058401516712161

$$$$
ZINC54553577
 OpenBabel10211214513D

 20 20  0  0  0  0  0  0  0  0999 V2000
   50.3840   51.1210   18.1450 C   0  0  0  0  0  0  0  0  0  0  0  0
   49.3960   51.3400   17.1970 C   0  0  0  0  0  0  0  0  0  0  0  0
   48.2560   50.5610   17.1920 C   0  0  0  0  0  0  0  0  0  0  0  0
   48.0900   49.5560   18.1320 C   0  0  0  0  0  0  0  0  0  0  0  0
   49.0590   49.3240   19.0820 C   0  0  0  0  0  0  0  0  0  0  0  0
   50.2220   50.1010   19.0940 C   0  0  0  0  0  0  0  0  0  0  0  0
   46.8390   48.7150   18.1160 C   0  0  0  0  0  0  0  0  0  0  0  0
   45.7390   49.5190   17.8050 F   0  0  0  0  0  0  0  0  0  0  0  0
   46.6510   48.1360   19.3760 F   0  0  0  0  0  0  0  0  0  0  0  0
   46.9680   47.7070   17.1550 F   0  0  0  0  0  0  0  0  0  0  0  0
   51.2660   49.8550   20.1020 C   0  0  0  0  0  0  0  0  0  0  0  0
   52.2030   49.1130   19.8430 O   0  0  0  0  0  0  0  0  0  0  0  0
   51.1960   50.3930   21.1990 O   0  0  0  0  0  0  0  0  0  0  0  0
   51.5040   51.8850   18.1490 O   0  0  0  0  0  0  0  0  0  0  0  0
   51.3590   53.2470   18.5540 C   0  0  0  0  0  0  0  0  0  0  0  0
   52.0820   53.4640   19.8850 C   0  0  0  0  0  0  0  0  0  0  0  0
   51.6250   54.2810   22.0950 C   0  0  0  0  0  0  0  0  0  0  0  0
   51.0990   53.4830   20.9780 N   0  0  0  0  0  0  0  0  0  0  0  0
   50.9250   52.5400   21.2910 H   0  0  0  0  0  0  0  0  0  0  0  0
   49.8460   54.0800   20.4990 C   0  0  0  0  0  0  0  0  0  0  0  0
  1 14  1  0  0  0  0
  1  6  2  0  0  0  0
  2  1  1  0  0  0  0
  3  2  2  0  0  0  0
  3  4  1  0  0  0  0
  4  5  2  0  0  0  0
  5  6  1  0  0  0  0
  6 11  1  0  0  0  0
  7  4  1  0  0  0  0
  7  9  1  0  0  0  0
  8  7  1  0  0  0  0
 10  7  1  0  0  0  0
 11 13  1  0  0  0  0
 12 11  2  0  0  0  0
 14 15  1  0  0  0  0
 15 16  1  0  0  0  0
 16 18  1  0  0  0  0
 18 19  1  0  0  0  0
 18 17  1  0  0  0  0
 20 18  1  0  0  0  0
M  END
>  <MODEL>
3

>  <REMARK>
  Name = ZINC54553577
                            x       y       z     vdW  Elec       q    Type
                         _______ _______ _______ _____ _____    ______ ____

>  <TORSDO>
F 6

>  <minimizedAffinity>
-6.8015699762515789

$$$$
ZINC54553577
 OpenBabel10211214513D

 20 20  0  0  0  0  0  0  0  0999 V2000
   49.0530   50.1090   17.9870 C   0  0  0  0  0  0  0  0  0  0  0  0
   48.8820   49.1840   19.0060 C   0  0  0  0  0  0  0  0  0  0  0  0
   47.7010   48.4750   19.1060 C   0  0  0  0  0  0  0  0  0  0  0  0
   46.6800   48.6800   18.1920 C   0  0  0  0  0  0  0  0  0  0  0  0
   46.8310   49.5940   17.1730 C   0  0  0  0  0  0  0  0  0  0  0  0
   48.0200   50.3240   17.0640 C   0  0  0  0  0  0  0  0  0  0  0  0
   45.3980   47.8980   18.3130 C   0  0  0  0  0  0  0  0  0  0  0  0
   45.2110   47.5090   19.6430 F   0  0  0  0  0  0  0  0  0  0  0  0
   45.4680   46.7610   17.5010 F   0  0  0  0  0  0  0  0  0  0  0  0
   44.3240   48.6960   17.9040 F   0  0  0  0  0  0  0  0  0  0  0  0
   48.1870   51.3070   15.9810 C   0  0  0  0  0  0  0  0  0  0  0  0
   48.5160   50.9360   14.8630 O   0  0  0  0  0  0  0  0  0  0  0  0
   47.9980   52.4960   16.2010 O   0  0  0  0  0  0  0  0  0  0  0  0
   50.2120   50.8070   17.8890 O   0  0  0  0  0  0  0  0  0  0  0  0
   50.5890   51.6000   19.0160 C   0  0  0  0  0  0  0  0  0  0  0  0
   52.0870   51.9070   18.9440 C   0  0  0  0  0  0  0  0  0  0  0  0
   52.0250   51.4700   21.3030 C   0  0  0  0  0  0  0  0  0  0  0  0
   52.7760   51.2440   20.0600 N   0  0  0  0  0  0  0  0  0  0  0  0
   53.7060   51.6240   20.1550 H   0  0  0  0  0  0  0  0  0  0  0  0
   52.8610   49.8020   19.7950 C   0  0  0  0  0  0  0  0  0  0  0  0
  1  2  2  0  0  0  0
  2  3  1  0  0  0  0
  4  7  1  0  0  0  0
  4  3  2  0  0  0  0
  5  4  1  0  0  0  0
  6  5  2  0  0  0  0
  6  1  1  0  0  0  0
  7  8  1  0  0  0  0
  9  7  1  0  0  0  0
 10  7  1  0  0  0  0
 11 13  1  0  0  0  0
 11  6  1  0  0  0  0
 12 11  2  0  0  0  0
 14  1  1  0  0  0  0
 14 15  1  0  0  0  0
 16 15  1  0  0  0  0
 16 18  1  0  0  0  0
 18 19  1  0  0  0  0
 18 17  1  0  0  0  0
 20 18  1  0  0  0  0
M  END
>  <MODEL>
4

>  <REMARK>
  Name = ZINC54553577
                            x       y       z     vdW  Elec       q    Type
                         _______ _______ _______ _____ _____    ______ ____

>  <TORSDO>
F 6

>  <minimizedAffinity>
-6.7239745205700236

$$$$
ZINC54553577
 OpenBabel10211214513D

 20 20  0  0  0  0  0  0  0  0999 V2000
   50.7980   55.2700   19.1290 C   0  0  0  0  0  0  0  0  0  0  0  0
   51.2470   56.3350   19.8960 C   0  0  0  0  0  0  0  0  0  0  0  0
   50.3440   57.2280   20.4380 C   0  0  0  0  0  0  0  0  0  0  0  0
   48.9850   57.0690   20.2210 C   0  0  0  0  0  0  0  0  0  0  0  0
   48.5190   56.0180   19.4630 C   0  0  0  0  0  0  0  0  0  0  0  0
   49.4230   55.1090   18.9030 C   0  0  0  0  0  0  0  0  0  0  0  0
   48.0100   58.0500   20.8200 C   0  0  0  0  0  0  0  0  0  0  0  0
   48.4150   58.3760   22.1190 F   0  0  0  0  0  0  0  0  0  0  0  0
   46.7360   57.4760   20.8600 F   0  0  0  0  0  0  0  0  0  0  0  0
   47.9750   59.2090   20.0380 F   0  0  0  0  0  0  0  0  0  0  0  0
   48.9330   53.9860   18.0860 C   0  0  0  0  0  0  0  0  0  0  0  0
   48.4070   54.2020   17.0030 O   0  0  0  0  0  0  0  0  0  0  0  0
   49.0530   52.8380   18.4910 O   0  0  0  0  0  0  0  0  0  0  0  0
   51.6840   54.3930   18.5960 O   0  0  0  0  0  0  0  0  0  0  0  0
   52.6260   53.7980   19.4900 C   0  0  0  0  0  0  0  0  0  0  0  0
   52.3450   52.2980   19.6030 C   0  0  0  0  0  0  0  0  0  0  0  0
   51.1460   50.6350   20.8490 C   0  0  0  0  0  0  0  0  0  0  0  0
   51.2720   52.0740   20.5820 N   0  0  0  0  0  0  0  0  0  0  0  0
   50.4010   52.4250   20.2130 H   0  0  0  0  0  0  0  0  0  0  0  0
   51.5940   52.7770   21.8310 C   0  0  0  0  0  0  0  0  0  0  0  0
  1  2  1  0  0  0  0
  2  3  2  0  0  0  0
  4  3  1  0  0  0  0
  4  7  1  0  0  0  0
  5  4  2  0  0  0  0
  6  1  2  0  0  0  0
  6  5  1  0  0  0  0
  7  9  1  0  0  0  0
  7  8  1  0  0  0  0
 10  7  1  0  0  0  0
 11 13  1  0  0  0  0
 11  6  1  0  0  0  0
 12 11  2  0  0  0  0
 14  1  1  0  0  0  0
 14 15  1  0  0  0  0
 15 16  1  0  0  0  0
 16 18  1  0  0  0  0
 18 17  1  0  0  0  0
 18 20  1  0  0  0  0
 19 18  1  0  0  0  0
M  END
>  <MODEL>
5

>  <REMARK>
  Name = ZINC54553577
                            x       y       z     vdW  Elec       q    Type
                         _______ _______ _______ _____ _____    ______ ____

>  <TORSDO>
F 6

>  <minimizedAffinity>
-6.6116399371528649

$$$$
ZINC54553577
 OpenBabel10211214513D

 20 20  0  0  0  0  0  0  0  0999 V2000
   50.7160   54.0110   19.7060 C   0  0  0  0  0  0  0  0  0  0  0  0
   49.4480   54.5720   19.6930 C   0  0  0  0  0  0  0  0  0  0  0  0
   48.5280   54.1820   18.7400 C   0  0  0  0  0  0  0  0  0  0  0  0
   48.8620   53.2290   17.7910 C   0  0  0  0  0  0  0  0  0  0  0  0
   50.1160   52.6600   17.7880 C   0  0  0  0  0  0  0  0  0  0  0  0
   51.0600   53.0500   18.7440 C   0  0  0  0  0  0  0  0  0  0  0  0
   47.8470   52.8120   16.7580 C   0  0  0  0  0  0  0  0  0  0  0  0
   47.4250   53.9340   16.0380 F   0  0  0  0  0  0  0  0  0  0  0  0
   46.7480   52.2270   17.3950 F   0  0  0  0  0  0  0  0  0  0  0  0
   48.4260   51.8860   15.8830 F   0  0  0  0  0  0  0  0  0  0  0  0
   52.4040   52.4500   18.7440 C   0  0  0  0  0  0  0  0  0  0  0  0
   52.6600   51.5220   19.4980 O   0  0  0  0  0  0  0  0  0  0  0  0
   53.2660   52.8810   17.9890 O   0  0  0  0  0  0  0  0  0  0  0  0
   51.6200   54.3940   20.6410 O   0  0  0  0  0  0  0  0  0  0  0  0
   51.9590   55.7810   20.6860 C   0  0  0  0  0  0  0  0  0  0  0  0
   52.1840   56.2040   22.1390 C   0  0  0  0  0  0  0  0  0  0  0  0
   53.9670   57.8100   22.1100 C   0  0  0  0  0  0  0  0  0  0  0  0
   52.5100   57.6360   22.1870 N   0  0  0  0  0  0  0  0  0  0  0  0
   52.1690   58.0300   23.0520 H   0  0  0  0  0  0  0  0  0  0  0  0
   51.8750   58.3210   21.0530 C   0  0  0  0  0  0  0  0  0  0  0  0
  1 14  1  0  0  0  0
  2  1  1  0  0  0  0
  3  2  2  0  0  0  0
  4  3  1  0  0  0  0
  5  4  2  0  0  0  0
  5  6  1  0  0  0  0
  6 11  1  0  0  0  0
  6  1  2  0  0  0  0
  7  9  1  0  0  0  0
  7  4  1  0  0  0  0
  8  7  1  0  0  0  0
 10  7  1  0  0  0  0
 11 12  1  0  0  0  0
 13 11  2  0  0  0  0
 14 15  1  0  0  0  0
 15 16  1  0  0  0  0
 16 18  1  0  0  0  0
 17 18  1  0  0  0  0
 18 19  1  0  0  0  0
 20 18  1  0  0  0  0
M  END
>  <MODEL>
6

>  <REMARK>
  Name = ZINC54553577
                            x       y       z     vdW  Elec       q    Type
                         _______ _______ _______ _____ _____    ______ ____

>  <TORSDO>
F 6

>  <minimizedAffinity>
-6.4606337457976437

$$$$
ZINC54553577
 OpenBabel10211214513D

 20 20  0  0  0  0  0  0  0  0999 V2000
   50.8880   52.1170   18.9820 C   0  0  0  0  0  0  0  0  0  0  0  0
   49.8030   52.2850   18.1340 C   0  0  0  0  0  0  0  0  0  0  0  0
   48.9420   51.2320   17.8950 C   0  0  0  0  0  0  0  0  0  0  0  0
   49.1540   50.0020   18.4970 C   0  0  0  0  0  0  0  0  0  0  0  0
   50.2250   49.8160   19.3420 C   0  0  0  0  0  0  0  0  0  0  0  0
   51.1080   50.8720   19.5880 C   0  0  0  0  0  0  0  0  0  0  0  0
   48.2050   48.8620   18.2270 C   0  0  0  0  0  0  0  0  0  0  0  0
   47.4210   48.6290   19.3620 F   0  0  0  0  0  0  0  0  0  0  0  0
   48.9360   47.7100   17.9220 F   0  0  0  0  0  0  0  0  0  0  0  0
   47.3770   49.1900   17.1480 F   0  0  0  0  0  0  0  0  0  0  0  0
   52.2600   50.6790   20.4860 C   0  0  0  0  0  0  0  0  0  0  0  0
   53.2230   50.0240   20.1120 O   0  0  0  0  0  0  0  0  0  0  0  0
   52.2530   51.1740   21.6040 O   0  0  0  0  0  0  0  0  0  0  0  0
   51.7340   53.1490   19.2170 O   0  0  0  0  0  0  0  0  0  0  0  0
   51.1760   54.3240   19.8080 C   0  0  0  0  0  0  0  0  0  0  0  0
   51.7120   54.4830   21.2320 C   0  0  0  0  0  0  0  0  0  0  0  0
   52.6740   56.4780   20.3110 C   0  0  0  0  0  0  0  0  0  0  0  0
   52.0130   55.8980   21.4870 N   0  0  0  0  0  0  0  0  0  0  0  0
   52.6240   55.9740   22.2870 H   0  0  0  0  0  0  0  0  0  0  0  0
   50.7640   56.6240   21.7550 C   0  0  0  0  0  0  0  0  0  0  0  0
  1 14  1  0  0  0  0
  1  6  2  0  0  0  0
  2  1  1  0  0  0  0
  3  2  2  0  0  0  0
  3  4  1  0  0  0  0
  4  5  2  0  0  0  0
  5  6  1  0  0  0  0
  6 11  1  0  0  0  0
  7  4  1  0  0  0  0
  7  8  1  0  0  0  0
  9  7  1  0  0  0  0
 10  7  1  0  0  0  0
 11 13  1  0  0  0  0
 12 11  2  0  0  0  0
 14 15  1  0  0  0  0
 15 16  1  0  0  0  0
 16 18  1  0  0  0  0
 17 18  1  0  0  0  0
 18 20  1  0  0  0  0
 18 19  1  0  0  0  0
M  END
>  <MODEL>
7

>  <REMARK>
  Name = ZINC54553577
                            x       y       z     vdW  Elec       q    Type
                         _______ _______ _______ _____ _____    ______ ____

>  <TORSDO>
F 6

>  <minimizedAffinity>
-6.4574001011491982

$$$$
ZINC54553577
 OpenBabel10211214513D

 20 20  0  0  0  0  0  0  0  0999 V2000
   49.6670   51.8680   17.9140 C   0  0  0  0  0  0  0  0  0  0  0  0
   49.7700   50.5240   18.2410 C   0  0  0  0  0  0  0  0  0  0  0  0
   48.6810   49.6900   18.0910 C   0  0  0  0  0  0  0  0  0  0  0  0
   47.4780   50.1850   17.6140 C   0  0  0  0  0  0  0  0  0  0  0  0
   47.3560   51.5160   17.2830 C   0  0  0  0  0  0  0  0  0  0  0  0
   48.4500   52.3740   17.4360 C   0  0  0  0  0  0  0  0  0  0  0  0
   46.2980   49.2610   17.4540 C   0  0  0  0  0  0  0  0  0  0  0  0
   45.1120   49.9940   17.5710 F   0  0  0  0  0  0  0  0  0  0  0  0
   46.3380   48.2780   18.4470 F   0  0  0  0  0  0  0  0  0  0  0  0
   46.3490   48.6540   16.1950 F   0  0  0  0  0  0  0  0  0  0  0  0
   48.3250   53.8000   17.0900 C   0  0  0  0  0  0  0  0  0  0  0  0
   48.5930   54.6560   17.9220 O   0  0  0  0  0  0  0  0  0  0  0  0
   47.9540   54.1280   15.9710 O   0  0  0  0  0  0  0  0  0  0  0  0
   50.7360   52.6890   18.0610 O   0  0  0  0  0  0  0  0  0  0  0  0
   51.8020   52.2240   18.8920 C   0  0  0  0  0  0  0  0  0  0  0  0
   52.1350   53.2890   19.9390 C   0  0  0  0  0  0  0  0  0  0  0  0
   51.1200   51.8200   21.5420 C   0  0  0  0  0  0  0  0  0  0  0  0
   51.1730   53.2020   21.0470 N   0  0  0  0  0  0  0  0  0  0  0  0
   50.2580   53.4780   20.7220 H   0  0  0  0  0  0  0  0  0  0  0  0
   51.5970   54.0950   22.1340 C   0  0  0  0  0  0  0  0  0  0  0  0
  1 14  1  0  0  0  0
  1  2  2  0  0  0  0
  3  2  1  0  0  0  0
  4  3  2  0  0  0  0
  5  6  2  0  0  0  0
  5  4  1  0  0  0  0
  6  1  1  0  0  0  0
  7  8  1  0  0  0  0
  7  4  1  0  0  0  0
  7  9  1  0  0  0  0
 10  7  1  0  0  0  0
 11  6  1  0  0  0  0
 11 12  1  0  0  0  0
 13 11  2  0  0  0  0
 14 15  1  0  0  0  0
 15 16  1  0  0  0  0
 16 18  1  0  0  0  0
 18 17  1  0  0  0  0
 18 20  1  0  0  0  0
 19 18  1  0  0  0  0
M  END
>  <MODEL>
8

>  <REMARK>
  Name = ZINC54553577
                            x       y       z     vdW  Elec       q    Type
                         _______ _______ _______ _____ _____    ______ ____

>  <TORSDO>
F 6

>  <minimizedAffinity>
-6.3406805185276749

$$$$
ZINC54553577
 OpenBabel10211214513D

 20 20  0  0  0  0  0  0  0  0999 V2000
   49.9130   53.1160   18.7550 C   0  0  0  0  0  0  0  0  0  0  0  0
   50.6850   53.5800   19.8100 C   0  0  0  0  0  0  0  0  0  0  0  0
   50.3710   54.7760   20.4250 C   0  0  0  0  0  0  0  0  0  0  0  0
   49.2840   55.5210   19.9950 C   0  0  0  0  0  0  0  0  0  0  0  0
   48.5050   55.0770   18.9500 C   0  0  0  0  0  0  0  0  0  0  0  0
   48.8160   53.8700   18.3140 C   0  0  0  0  0  0  0  0  0  0  0  0
   48.9520   56.8230   20.6760 C   0  0  0  0  0  0  0  0  0  0  0  0
   47.5650   56.9410   20.8070 F   0  0  0  0  0  0  0  0  0  0  0  0
   49.4400   57.8870   19.9110 F   0  0  0  0  0  0  0  0  0  0  0  0
   49.5450   56.8510   21.9430 F   0  0  0  0  0  0  0  0  0  0  0  0
   47.9920   53.3920   17.1910 C   0  0  0  0  0  0  0  0  0  0  0  0
   47.1430   52.5310   17.3800 O   0  0  0  0  0  0  0  0  0  0  0  0
   48.1570   53.8550   16.0710 O   0  0  0  0  0  0  0  0  0  0  0  0
   50.2210   51.9420   18.1500 O   0  0  0  0  0  0  0  0  0  0  0  0
   49.8660   50.7430   18.8420 C   0  0  0  0  0  0  0  0  0  0  0  0
   49.4170   49.6860   17.8310 C   0  0  0  0  0  0  0  0  0  0  0  0
   47.5290   49.2480   16.4170 C   0  0  0  0  0  0  0  0  0  0  0  0
   47.9490   49.6700   17.7600 N   0  0  0  0  0  0  0  0  0  0  0  0
   47.5930   50.5950   17.9480 H   0  0  0  0  0  0  0  0  0  0  0  0
   47.4210   48.7290   18.7560 C   0  0  0  0  0  0  0  0  0  0  0  0
  1  2  1  0  0  0  0
  2  3  2  0  0  0  0
  4  3  1  0  0  0  0
  4  7  1  0  0  0  0
  5  4  2  0  0  0  0
  6  1  2  0  0  0  0
  6  5  1  0  0  0  0
  7  8  1  0  0  0  0
  7 10  1  0  0  0  0
  9  7  1  0  0  0  0
 11 12  1  0  0  0  0
 11  6  1  0  0  0  0
 13 11  2  0  0  0  0
 14  1  1  0  0  0  0
 14 15  1  0  0  0  0
 16 15  1  0  0  0  0
 17 18  1  0  0  0  0
 18 16  1  0  0  0  0
 18 19  1  0  0  0  0
 18 20  1  0  0  0  0
M  END
>  <MODEL>
9

>  <REMARK>
  Name = ZINC54553577
                            x       y       z     vdW  Elec       q    Type
                         _______ _______ _______ _____ _____    ______ ____

>  <TORSDO>
F 6

>  <minimizedAffinity>
-6.2146482346882959

$$$$
ZINC42925155
 OpenBabel10211214523D

 21 21  0  0  0  0  0  0  0  0999 V2000
   51.8600   52.0120   21.6710 C   0  0  0  0  0  0  0  0  0  0  0  0
   52.1550   53.2150   20.8880 N   0  0  0  0  0  0  0  0  0  0  0  0
   52.8350   53.1880   20.1960 H   0  0  0  0  0  0  0  0  0  0  0  0
   51.4610   54.3950   21.1350 C   0  0  0  0  0  0  0  0  0  0  0  0
   50.3150   54.6880   20.4000 C   0  0  0  0  0  0  0  0  0  0  0  0
   49.7500   53.5940   19.1780 Cl  0  0  0  0  0  0  0  0  0  0  0  0
   49.6350   55.8660   20.6570 C   0  0  0  0  0  0  0  0  0  0  0  0
   50.1250   56.7130   21.6450 C   0  0  0  0  0  0  0  0  0  0  0  0
   49.3100   58.2020   22.0060 Cl  0  0  0  0  0  0  0  0  0  0  0  0
   51.2670   56.3570   22.3350 C   0  0  0  0  0  0  0  0  0  0  0  0
   51.8920   55.2250   22.0720 N   0  0  0  0  0  0  0  0  0  0  0  0
   52.3100   50.7740   20.8940 C   0  0  0  0  0  0  0  0  0  0  0  0
   49.9780   49.6080   18.3020 N   0  0  0  0  0  0  0  0  0  0  0  0
   50.1210   50.2650   17.6040 H   0  0  0  0  0  0  0  0  0  0  0  0
   50.6700   49.6890   19.4560 C   0  0  0  0  0  0  0  0  0  0  0  0
   51.5590   50.6850   19.6400 N   0  0  0  0  0  0  0  0  0  0  0  0
   51.7000   51.3430   18.9420 H   0  0  0  0  0  0  0  0  0  0  0  0
   50.4910   48.8640   20.3310 O   0  0  0  0  0  0  0  0  0  0  0  0
   49.0120   48.5250   18.1010 C   0  0  0  0  0  0  0  0  0  0  0  0
   46.6740   48.3080   18.7730 C   0  0  0  0  0  0  0  0  0  0  0  0
   47.6130   49.0640   18.2610 C   0  0  0  0  0  0  0  0  0  0  0  0
  2  4  1  0  0  0  0
  2  1  1  0  0  0  0
  3  2  1  0  0  0  0
  4 11  2  0  0  0  0
  5  7  2  0  0  0  0
  5  4  1  0  0  0  0
  6  5  1  0  0  0  0
  7  8  1  0  0  0  0
  8  9  1  0  0  0  0
  8 10  2  0  0  0  0
 11 10  1  0  0  0  0
 12  1  1  0  0  0  0
 13 15  1  0  0  0  0
 14 13  1  0  0  0  0
 15 16  1  0  0  0  0
 15 18  2  0  0  0  0
 16 12  1  0  0  0  0
 17 16  1  0  0  0  0
 19 21  1  0  0  0  0
 19 13  1  0  0  0  0
 21 20  2  0  0  0  0
M  END
>  <MODEL>
1

>  <REMARK>
  Name = ZINC42925155
                            x       y       z     vdW  Elec       q    Type
                         _______ _______ _______ _____ _____    ______ ____

>  <TORSDO>
F 6

>  <minimizedAffinity>
-6.8157228795189537

$$$$
ZINC42925155
 OpenBabel10211214523D

 21 21  0  0  0  0  0  0  0  0999 V2000
   51.2100   52.6410   21.8580 C   0  0  0  0  0  0  0  0  0  0  0  0
   51.3790   53.7020   20.8610 N   0  0  0  0  0  0  0  0  0  0  0  0
   52.1470   53.6910   20.2680 H   0  0  0  0  0  0  0  0  0  0  0  0
   50.4400   54.7230   20.7640 C   0  0  0  0  0  0  0  0  0  0  0  0
   50.6450   55.9170   21.4500 C   0  0  0  0  0  0  0  0  0  0  0  0
   52.0630   56.1390   22.4260 Cl  0  0  0  0  0  0  0  0  0  0  0  0
   49.7010   56.9250   21.3440 C   0  0  0  0  0  0  0  0  0  0  0  0
   48.5810   56.7020   20.5510 C   0  0  0  0  0  0  0  0  0  0  0  0
   47.3680   57.9320   20.3850 Cl  0  0  0  0  0  0  0  0  0  0  0  0
   48.4430   55.4930   19.8990 C   0  0  0  0  0  0  0  0  0  0  0  0
   49.3620   54.5520   20.0150 N   0  0  0  0  0  0  0  0  0  0  0  0
   52.0900   51.4470   21.4870 C   0  0  0  0  0  0  0  0  0  0  0  0
   49.8190   49.0460   19.8750 N   0  0  0  0  0  0  0  0  0  0  0  0
   49.7270   48.3730   20.5660 H   0  0  0  0  0  0  0  0  0  0  0  0
   50.5960   50.1280   20.0860 C   0  0  0  0  0  0  0  0  0  0  0  0
   51.2460   50.2720   21.2580 N   0  0  0  0  0  0  0  0  0  0  0  0
   51.1540   49.5970   21.9490 H   0  0  0  0  0  0  0  0  0  0  0  0
   50.7100   50.9730   19.2190 O   0  0  0  0  0  0  0  0  0  0  0  0
   49.1120   48.8890   18.6010 C   0  0  0  0  0  0  0  0  0  0  0  0
   46.7930   48.7470   17.8500 C   0  0  0  0  0  0  0  0  0  0  0  0
   47.6300   48.8020   18.8570 C   0  0  0  0  0  0  0  0  0  0  0  0
  2  1  1  0  0  0  0
  3  2  1  0  0  0  0
  4  2  1  0  0  0  0
  4  5  2  0  0  0  0
  5  6  1  0  0  0  0
  7  5  1  0  0  0  0
  8  7  2  0  0  0  0
  9  8  1  0  0  0  0
 10 11  2  0  0  0  0
 10  8  1  0  0  0  0
 11  4  1  0  0  0  0
 12  1  1  0  0  0  0
 13 15  1  0  0  0  0
 13 14  1  0  0  0  0
 15 16  1  0  0  0  0
 16 12  1  0  0  0  0
 16 17  1  0  0  0  0
 18 15  2  0  0  0  0
 19 21  1  0  0  0  0
 19 13  1  0  0  0  0
 20 21  2  0  0  0  0
M  END
>  <MODEL>
2

>  <REMARK>
  Name = ZINC42925155
                            x       y       z     vdW  Elec       q    Type
                         _______ _______ _______ _____ _____    ______ ____

>  <TORSDO>
F 6

>  <minimizedAffinity>
-6.6514247132607354

$$$$
ZINC42925155
 OpenBabel10211214523D

 21 21  0  0  0  0  0  0  0  0999 V2000
   51.8130   52.2180   19.1100 C   0  0  0  0  0  0  0  0  0  0  0  0
   50.8550   52.0530   18.0130 N   0  0  0  0  0  0  0  0  0  0  0  0
   50.9380   52.5940   17.2120 H   0  0  0  0  0  0  0  0  0  0  0  0
   49.8270   51.1220   18.1200 C   0  0  0  0  0  0  0  0  0  0  0  0
   48.6200   51.3480   17.4630 C   0  0  0  0  0  0  0  0  0  0  0  0
   48.3900   52.7830   16.5150 Cl  0  0  0  0  0  0  0  0  0  0  0  0
   47.6060   50.4130   17.5780 C   0  0  0  0  0  0  0  0  0  0  0  0
   47.8350   49.2790   18.3490 C   0  0  0  0  0  0  0  0  0  0  0  0
   46.5970   48.0760   18.5270 Cl  0  0  0  0  0  0  0  0  0  0  0  0
   49.0580   49.1200   18.9720 C   0  0  0  0  0  0  0  0  0  0  0  0
   50.0070   50.0260   18.8400 N   0  0  0  0  0  0  0  0  0  0  0  0
   52.5600   53.5410   18.9400 C   0  0  0  0  0  0  0  0  0  0  0  0
   50.7130   56.3640   20.4020 N   0  0  0  0  0  0  0  0  0  0  0  0
   50.1250   56.6090   19.6710 H   0  0  0  0  0  0  0  0  0  0  0  0
   51.5760   55.3390   20.2570 C   0  0  0  0  0  0  0  0  0  0  0  0
   51.6220   54.6550   19.0970 N   0  0  0  0  0  0  0  0  0  0  0  0
   51.0340   54.9010   18.3660 H   0  0  0  0  0  0  0  0  0  0  0  0
   52.3140   55.0310   21.1740 O   0  0  0  0  0  0  0  0  0  0  0  0
   50.6630   57.1070   21.6640 C   0  0  0  0  0  0  0  0  0  0  0  0
   48.3390   57.4690   21.0080 C   0  0  0  0  0  0  0  0  0  0  0  0
   49.3420   57.8240   21.7720 C   0  0  0  0  0  0  0  0  0  0  0  0
  2  4  1  0  0  0  0
  2  1  1  0  0  0  0
  3  2  1  0  0  0  0
  4 11  2  0  0  0  0
  5  7  2  0  0  0  0
  5  4  1  0  0  0  0
  6  5  1  0  0  0  0
  7  8  1  0  0  0  0
  8  9  1  0  0  0  0
  8 10  2  0  0  0  0
 11 10  1  0  0  0  0
 12 16  1  0  0  0  0
 12  1  1  0  0  0  0
 13 19  1  0  0  0  0
 14 13  1  0  0  0  0
 15 13  1  0  0  0  0
 15 18  2  0  0  0  0
 16 15  1  0  0  0  0
 17 16  1  0  0  0  0
 19 21  1  0  0  0  0
 20 21  2  0  0  0  0
M  END
>  <MODEL>
3

>  <REMARK>
  Name = ZINC42925155
                            x       y       z     vdW  Elec       q    Type
                         _______ _______ _______ _____ _____    ______ ____

>  <TORSDO>
F 6

>  <minimizedAffinity>
-6.3780485875910342

$$$$
ZINC42925155
 OpenBabel10211214523D

 21 21  0  0  0  0  0  0  0  0999 V2000
   50.6830   49.0550   19.8970 C   0  0  0  0  0  0  0  0  0  0  0  0
   50.3130   49.5180   18.5570 N   0  0  0  0  0  0  0  0  0  0  0  0
   50.9660   49.9780   18.0060 H   0  0  0  0  0  0  0  0  0  0  0  0
   49.0270   49.2990   18.0750 C   0  0  0  0  0  0  0  0  0  0  0  0
   48.2500   50.3790   17.6650 C   0  0  0  0  0  0  0  0  0  0  0  0
   48.8750   51.9960   17.7540 Cl  0  0  0  0  0  0  0  0  0  0  0  0
   46.9720   50.1450   17.1870 C   0  0  0  0  0  0  0  0  0  0  0  0
   46.5140   48.8340   17.1340 C   0  0  0  0  0  0  0  0  0  0  0  0
   44.9200   48.4860   16.5430 Cl  0  0  0  0  0  0  0  0  0  0  0  0
   47.3410   47.8110   17.5570 C   0  0  0  0  0  0  0  0  0  0  0  0
   48.5560   48.0630   18.0030 N   0  0  0  0  0  0  0  0  0  0  0  0
   52.0590   49.6110   20.2680 C   0  0  0  0  0  0  0  0  0  0  0  0
   51.4670   52.7660   22.0610 N   0  0  0  0  0  0  0  0  0  0  0  0
   51.5980   52.4920   22.9820 H   0  0  0  0  0  0  0  0  0  0  0  0
   51.6000   51.8670   21.0660 C   0  0  0  0  0  0  0  0  0  0  0  0
   51.9150   50.5870   21.3500 N   0  0  0  0  0  0  0  0  0  0  0  0
   52.0450   50.3140   22.2720 H   0  0  0  0  0  0  0  0  0  0  0  0
   51.4370   52.2100   19.9110 O   0  0  0  0  0  0  0  0  0  0  0  0
   51.1250   54.1560   21.7520 C   0  0  0  0  0  0  0  0  0  0  0  0
   51.7470   56.3600   22.6000 C   0  0  0  0  0  0  0  0  0  0  0  0
   51.7260   55.0650   22.7940 C   0  0  0  0  0  0  0  0  0  0  0  0
  1 12  1  0  0  0  0
  2  1  1  0  0  0  0
  3  2  1  0  0  0  0
  4  2  1  0  0  0  0
  5  6  1  0  0  0  0
  5  4  2  0  0  0  0
  7  5  1  0  0  0  0
  8  7  2  0  0  0  0
  8 10  1  0  0  0  0
  9  8  1  0  0  0  0
 10 11  2  0  0  0  0
 11  4  1  0  0  0  0
 12 16  1  0  0  0  0
 13 14  1  0  0  0  0
 15 16  1  0  0  0  0
 15 13  1  0  0  0  0
 16 17  1  0  0  0  0
 18 15  2  0  0  0  0
 19 13  1  0  0  0  0
 19 21  1  0  0  0  0
 20 21  2  0  0  0  0
M  END
>  <MODEL>
4

>  <REMARK>
  Name = ZINC42925155
                            x       y       z     vdW  Elec       q    Type
                         _______ _______ _______ _____ _____    ______ ____

>  <TORSDO>
F 6

>  <minimizedAffinity>
-6.3282514879102481

$$$$
ZINC42925155
 OpenBabel10211214523D

 21 21  0  0  0  0  0  0  0  0999 V2000
   50.7670   51.9140   20.7250 C   0  0  0  0  0  0  0  0  0  0  0  0
   51.1130   52.3850   19.3820 N   0  0  0  0  0  0  0  0  0  0  0  0
   51.8340   53.0240   19.2630 H   0  0  0  0  0  0  0  0  0  0  0  0
   50.4100   51.9150   18.2770 C   0  0  0  0  0  0  0  0  0  0  0  0
   49.2920   52.6110   17.8240 C   0  0  0  0  0  0  0  0  0  0  0  0
   48.7690   54.0560   18.6300 Cl  0  0  0  0  0  0  0  0  0  0  0  0
   48.6030   52.1320   16.7230 C   0  0  0  0  0  0  0  0  0  0  0  0
   49.0580   50.9700   16.1100 C   0  0  0  0  0  0  0  0  0  0  0  0
   48.2290   50.3280   14.7270 Cl  0  0  0  0  0  0  0  0  0  0  0  0
   50.1750   50.3330   16.6130 C   0  0  0  0  0  0  0  0  0  0  0  0
   50.8150   50.8150   17.6610 N   0  0  0  0  0  0  0  0  0  0  0  0
   51.8660   52.3220   21.7080 C   0  0  0  0  0  0  0  0  0  0  0  0
   51.3860   55.8710   22.5380 N   0  0  0  0  0  0  0  0  0  0  0  0
   50.9080   55.8100   23.3790 H   0  0  0  0  0  0  0  0  0  0  0  0
   51.7570   54.7490   21.8900 C   0  0  0  0  0  0  0  0  0  0  0  0
   51.4620   53.5410   22.4120 N   0  0  0  0  0  0  0  0  0  0  0  0
   50.9840   53.4810   23.2530 H   0  0  0  0  0  0  0  0  0  0  0  0
   52.3570   54.8250   20.8360 O   0  0  0  0  0  0  0  0  0  0  0  0
   51.7060   57.1840   21.9710 C   0  0  0  0  0  0  0  0  0  0  0  0
   49.3110   57.5530   21.6720 C   0  0  0  0  0  0  0  0  0  0  0  0
   50.5220   57.6980   21.1930 C   0  0  0  0  0  0  0  0  0  0  0  0
  1 12  1  0  0  0  0
  2  1  1  0  0  0  0
  3  2  1  0  0  0  0
  4  2  1  0  0  0  0
  5  4  1  0  0  0  0
  5  6  1  0  0  0  0
  7  5  2  0  0  0  0
  8 10  2  0  0  0  0
  8  7  1  0  0  0  0
  9  8  1  0  0  0  0
 10 11  1  0  0  0  0
 11  4  2  0  0  0  0
 12 16  1  0  0  0  0
 13 14  1  0  0  0  0
 15 16  1  0  0  0  0
 15 13  1  0  0  0  0
 16 17  1  0  0  0  0
 18 15  2  0  0  0  0
 19 13  1  0  0  0  0
 21 20  2  0  0  0  0
 21 19  1  0  0  0  0
M  END
>  <MODEL>
5

>  <REMARK>
  Name = ZINC42925155
                            x       y       z     vdW  Elec       q    Type
                         _______ _______ _______ _____ _____    ______ ____

>  <TORSDO>
F 6

>  <minimizedAffinity>
-6.2393455175676333

$$$$
ZINC42925155
 OpenBabel10211214523D

 21 21  0  0  0  0  0  0  0  0999 V2000
   52.1460   51.8820   18.6080 C   0  0  0  0  0  0  0  0  0  0  0  0
   51.7060   50.4970   18.4230 N   0  0  0  0  0  0  0  0  0  0  0  0
   52.3560   49.7760   18.4320 H   0  0  0  0  0  0  0  0  0  0  0  0
   50.3570   50.2140   18.2340 C   0  0  0  0  0  0  0  0  0  0  0  0
   49.7100   49.3310   19.0950 C   0  0  0  0  0  0  0  0  0  0  0  0
   50.5750   48.5820   20.3990 Cl  0  0  0  0  0  0  0  0  0  0  0  0
   48.3680   49.0590   18.8950 C   0  0  0  0  0  0  0  0  0  0  0  0
   47.7160   49.6830   17.8370 C   0  0  0  0  0  0  0  0  0  0  0  0
   46.0330   49.3750   17.5420 Cl  0  0  0  0  0  0  0  0  0  0  0  0
   48.4210   50.5470   17.0230 C   0  0  0  0  0  0  0  0  0  0  0  0
   49.6990   50.7910   17.2410 N   0  0  0  0  0  0  0  0  0  0  0  0
   52.1160   52.2320   20.0970 C   0  0  0  0  0  0  0  0  0  0  0  0
   50.0030   55.2050   20.5650 N   0  0  0  0  0  0  0  0  0  0  0  0
   49.1520   54.8020   20.7960 H   0  0  0  0  0  0  0  0  0  0  0  0
   51.0710   54.4230   20.3100 C   0  0  0  0  0  0  0  0  0  0  0  0
   50.9550   53.0810   20.3750 N   0  0  0  0  0  0  0  0  0  0  0  0
   50.1030   52.6790   20.6040 H   0  0  0  0  0  0  0  0  0  0  0  0
   52.1390   54.9280   20.0220 O   0  0  0  0  0  0  0  0  0  0  0  0
   50.1290   56.6630   20.4950 C   0  0  0  0  0  0  0  0  0  0  0  0
   48.1700   58.0270   21.0080 C   0  0  0  0  0  0  0  0  0  0  0  0
   49.1590   57.2970   21.4590 C   0  0  0  0  0  0  0  0  0  0  0  0
  1 12  1  0  0  0  0
  2  3  1  0  0  0  0
  2  1  1  0  0  0  0
  4  2  1  0  0  0  0
  4  5  2  0  0  0  0
  5  6  1  0  0  0  0
  7  5  1  0  0  0  0
  8  7  2  0  0  0  0
  9  8  1  0  0  0  0
 10 11  2  0  0  0  0
 10  8  1  0  0  0  0
 11  4  1  0  0  0  0
 12 16  1  0  0  0  0
 13 14  1  0  0  0  0
 15 16  1  0  0  0  0
 15 13  1  0  0  0  0
 16 17  1  0  0  0  0
 18 15  2  0  0  0  0
 19 13  1  0  0  0  0
 19 21  1  0  0  0  0
 20 21  2  0  0  0  0
M  END
>  <MODEL>
6

>  <REMARK>
  Name = ZINC42925155
                            x       y       z     vdW  Elec       q    Type
                         _______ _______ _______ _____ _____    ______ ____

>  <TORSDO>
F 6

>  <minimizedAffinity>
-6.1180863752171293

$$$$
ZINC42925155
 OpenBabel10211214523D

 21 21  0  0  0  0  0  0  0  0999 V2000
   51.5200   50.7730   18.1380 C   0  0  0  0  0  0  0  0  0  0  0  0
   50.9650   50.7820   16.7820 N   0  0  0  0  0  0  0  0  0  0  0  0
   51.4850   51.1450   16.0480 H   0  0  0  0  0  0  0  0  0  0  0  0
   49.6930   50.2700   16.5470 C   0  0  0  0  0  0  0  0  0  0  0  0
   49.4420   49.5520   15.3800 C   0  0  0  0  0  0  0  0  0  0  0  0
   50.7050   49.2940   14.2180 Cl  0  0  0  0  0  0  0  0  0  0  0  0
   48.1720   49.0480   15.1600 C   0  0  0  0  0  0  0  0  0  0  0  0
   47.1920   49.2800   16.1180 C   0  0  0  0  0  0  0  0  0  0  0  0
   45.5830   48.6710   15.8900 Cl  0  0  0  0  0  0  0  0  0  0  0  0
   47.5120   50.0000   17.2520 C   0  0  0  0  0  0  0  0  0  0  0  0
   48.7330   50.4640   17.4380 N   0  0  0  0  0  0  0  0  0  0  0  0
   51.6970   52.2120   18.6260 C   0  0  0  0  0  0  0  0  0  0  0  0
   49.0680   54.7590   18.9750 N   0  0  0  0  0  0  0  0  0  0  0  0
   48.2730   54.2080   19.0440 H   0  0  0  0  0  0  0  0  0  0  0  0
   50.2780   54.1820   18.8320 C   0  0  0  0  0  0  0  0  0  0  0  0
   50.3820   52.8390   18.7830 N   0  0  0  0  0  0  0  0  0  0  0  0
   49.5860   52.2890   18.8500 H   0  0  0  0  0  0  0  0  0  0  0  0
   51.2750   54.8730   18.7470 O   0  0  0  0  0  0  0  0  0  0  0  0
   48.9540   56.2190   19.0290 C   0  0  0  0  0  0  0  0  0  0  0  0
   48.3220   57.5960   20.9440 C   0  0  0  0  0  0  0  0  0  0  0  0
   48.0140   56.6090   20.1400 C   0  0  0  0  0  0  0  0  0  0  0  0
  1 12  1  0  0  0  0
  2  1  1  0  0  0  0
  3  2  1  0  0  0  0
  4  2  1  0  0  0  0
  4 11  2  0  0  0  0
  5  4  1  0  0  0  0
  6  5  1  0  0  0  0
  7  5  2  0  0  0  0
  7  8  1  0  0  0  0
  8 10  2  0  0  0  0
  9  8  1  0  0  0  0
 10 11  1  0  0  0  0
 12 16  1  0  0  0  0
 13 19  1  0  0  0  0
 13 14  1  0  0  0  0
 15 13  1  0  0  0  0
 16 15  1  0  0  0  0
 16 17  1  0  0  0  0
 18 15  2  0  0  0  0
 19 21  1  0  0  0  0
 21 20  2  0  0  0  0
M  END
>  <MODEL>
7

>  <REMARK>
  Name = ZINC42925155
                            x       y       z     vdW  Elec       q    Type
                         _______ _______ _______ _____ _____    ______ ____

>  <TORSDO>
F 6

>  <minimizedAffinity>
-6.0869546803161638

$$$$
ZINC42925155
 OpenBabel10211214523D

 21 21  0  0  0  0  0  0  0  0999 V2000
   47.9590   52.7990   16.8580 C   0  0  0  0  0  0  0  0  0  0  0  0
   48.2870   51.3940   16.6010 N   0  0  0  0  0  0  0  0  0  0  0  0
   48.9970   51.1680   15.9800 H   0  0  0  0  0  0  0  0  0  0  0  0
   47.5830   50.3840   17.2490 C   0  0  0  0  0  0  0  0  0  0  0  0
   48.2180   49.6100   18.2160 C   0  0  0  0  0  0  0  0  0  0  0  0
   49.8820   49.8950   18.6170 Cl  0  0  0  0  0  0  0  0  0  0  0  0
   47.5050   48.6090   18.8520 C   0  0  0  0  0  0  0  0  0  0  0  0
   46.1740   48.4160   18.4980 C   0  0  0  0  0  0  0  0  0  0  0  0
   45.2350   47.1740   19.2640 Cl  0  0  0  0  0  0  0  0  0  0  0  0
   45.6080   49.2230   17.5300 C   0  0  0  0  0  0  0  0  0  0  0  0
   46.3120   50.1730   16.9440 N   0  0  0  0  0  0  0  0  0  0  0  0
   49.0730   53.4400   17.6870 C   0  0  0  0  0  0  0  0  0  0  0  0
   48.0550   56.2020   19.8910 N   0  0  0  0  0  0  0  0  0  0  0  0
   47.5840   55.7260   20.5930 H   0  0  0  0  0  0  0  0  0  0  0  0
   48.5970   55.5210   18.8610 C   0  0  0  0  0  0  0  0  0  0  0  0
   48.4840   54.1790   18.8070 N   0  0  0  0  0  0  0  0  0  0  0  0
   48.0130   53.7040   19.5080 H   0  0  0  0  0  0  0  0  0  0  0  0
   49.1870   56.1180   17.9820 O   0  0  0  0  0  0  0  0  0  0  0  0
   48.1770   57.6610   19.9500 C   0  0  0  0  0  0  0  0  0  0  0  0
   49.6350   57.7720   21.9070 C   0  0  0  0  0  0  0  0  0  0  0  0
   48.4830   58.0810   21.3650 C   0  0  0  0  0  0  0  0  0  0  0  0
  1 12  1  0  0  0  0
  2  1  1  0  0  0  0
  2  4  1  0  0  0  0
  3  2  1  0  0  0  0
  4  5  1  0  0  0  0
  5  6  1  0  0  0  0
  5  7  2  0  0  0  0
  8  7  1  0  0  0  0
  8  9  1  0  0  0  0
 10  8  2  0  0  0  0
 11  4  2  0  0  0  0
 11 10  1  0  0  0  0
 12 16  1  0  0  0  0
 13 19  1  0  0  0  0
 13 14  1  0  0  0  0
 15 13  1  0  0  0  0
 16 15  1  0  0  0  0
 16 17  1  0  0  0  0
 18 15  2  0  0  0  0
 19 21  1  0  0  0  0
 21 20  2  0  0  0  0
M  END
>  <MODEL>
8

>  <REMARK>
  Name = ZINC42925155
                            x       y       z     vdW  Elec       q    Type
                         _______ _______ _______ _____ _____    ______ ____

>  <TORSDO>
F 6

>  <minimizedAffinity>
-6.0706874494690233

$$$$
ZINC42925155
 OpenBabel10211214523D

 21 21  0  0  0  0  0  0  0  0999 V2000
   50.1920   53.2160   19.4600 C   0  0  0  0  0  0  0  0  0  0  0  0
   49.5460   54.4230   19.9820 N   0  0  0  0  0  0  0  0  0  0  0  0
   48.5780   54.4810   20.0130 H   0  0  0  0  0  0  0  0  0  0  0  0
   50.3210   55.4870   20.4340 C   0  0  0  0  0  0  0  0  0  0  0  0
   49.7140   56.7030   20.7360 C   0  0  0  0  0  0  0  0  0  0  0  0
   48.0000   56.9010   20.5510 Cl  0  0  0  0  0  0  0  0  0  0  0  0
   50.4970   57.7520   21.1860 C   0  0  0  0  0  0  0  0  0  0  0  0
   51.8660   57.5480   21.3190 C   0  0  0  0  0  0  0  0  0  0  0  0
   52.8930   58.8310   21.8770 Cl  0  0  0  0  0  0  0  0  0  0  0  0
   52.3990   56.3140   21.0010 C   0  0  0  0  0  0  0  0  0  0  0  0
   51.6280   55.3310   20.5800 N   0  0  0  0  0  0  0  0  0  0  0  0
   49.7580   52.9920   18.0100 C   0  0  0  0  0  0  0  0  0  0  0  0
   49.9910   49.7650   16.2630 N   0  0  0  0  0  0  0  0  0  0  0  0
   50.8530   49.4430   16.5670 H   0  0  0  0  0  0  0  0  0  0  0  0
   49.5270   50.9560   16.6930 C   0  0  0  0  0  0  0  0  0  0  0  0
   50.2630   51.6980   17.5440 N   0  0  0  0  0  0  0  0  0  0  0  0
   51.1250   51.3760   17.8470 H   0  0  0  0  0  0  0  0  0  0  0  0
   48.4450   51.3600   16.3120 O   0  0  0  0  0  0  0  0  0  0  0  0
   49.1910   48.9580   15.3380 C   0  0  0  0  0  0  0  0  0  0  0  0
   48.6050   47.6370   17.3070 C   0  0  0  0  0  0  0  0  0  0  0  0
   48.7950   47.6690   16.0110 C   0  0  0  0  0  0  0  0  0  0  0  0
  1  2  1  0  0  0  0
  2  3  1  0  0  0  0
  2  4  1  0  0  0  0
  4 11  2  0  0  0  0
  4  5  1  0  0  0  0
  5  7  2  0  0  0  0
  6  5  1  0  0  0  0
  7  8  1  0  0  0  0
  8  9  1  0  0  0  0
 10  8  2  0  0  0  0
 11 10  1  0  0  0  0
 12  1  1  0  0  0  0
 13 14  1  0  0  0  0
 13 15  1  0  0  0  0
 15 16  1  0  0  0  0
 16 17  1  0  0  0  0
 16 12  1  0  0  0  0
 18 15  2  0  0  0  0
 19 21  1  0  0  0  0
 19 13  1  0  0  0  0
 21 20  2  0  0  0  0
M  END
>  <MODEL>
9

>  <REMARK>
  Name = ZINC42925155
                            x       y       z     vdW  Elec       q    Type
                         _______ _______ _______ _____ _____    ______ ____

>  <TORSDO>
F 6

>  <minimizedAffinity>
-5.870595814709695

$$$$
ZINC02172168
 OpenBabel10211214533D

 18 18  0  0  0  0  0  0  0  0999 V2000
   51.3810   52.7010   21.4460 C   0  0  0  0  0  0  0  0  0  0  0  0
   51.5430   53.8080   20.6930 N   0  0  0  0  0  0  0  0  0  0  0  0
   52.3380   53.9120   20.1490 H   0  0  0  0  0  0  0  0  0  0  0  0
   50.4360   52.6140   22.2050 O   0  0  0  0  0  0  0  0  0  0  0  0
   50.5620   54.8060   20.6980 C   0  0  0  0  0  0  0  0  0  0  0  0
   49.4180   54.6620   19.9230 C   0  0  0  0  0  0  0  0  0  0  0  0
   48.4520   55.6480   19.9300 C   0  0  0  0  0  0  0  0  0  0  0  0
   48.6220   56.7810   20.7070 C   0  0  0  0  0  0  0  0  0  0  0  0
   47.4070   58.0190   20.7120 Cl  0  0  0  0  0  0  0  0  0  0  0  0
   49.7610   56.9270   21.4800 C   0  0  0  0  0  0  0  0  0  0  0  0
   50.7280   55.9400   21.4800 C   0  0  0  0  0  0  0  0  0  0  0  0
   51.9640   56.0980   22.3270 C   0  0  0  0  0  0  0  0  0  0  0  0
   52.2640   51.6880   21.3520 O   0  0  0  0  0  0  0  0  0  0  0  0
   52.6580   51.2800   20.0150 C   0  0  0  0  0  0  0  0  0  0  0  0
   52.5090   49.7640   19.8780 C   0  0  0  0  0  0  0  0  0  0  0  0
   51.1520   49.3950   20.1290 O   0  0  0  0  0  0  0  0  0  0  0  0
   49.1440   48.9200   18.8700 C   0  0  0  0  0  0  0  0  0  0  0  0
   50.2160   49.9590   19.2090 C   0  0  0  0  0  0  0  0  0  0  0  0
  1  4  2  0  0  0  0
  2  5  1  0  0  0  0
  2  1  1  0  0  0  0
  3  2  1  0  0  0  0
  5 11  2  0  0  0  0
  6  7  2  0  0  0  0
  6  5  1  0  0  0  0
  7  8  1  0  0  0  0
  8  9  1  0  0  0  0
  8 10  2  0  0  0  0
 11 10  1  0  0  0  0
 11 12  1  0  0  0  0
 13  1  1  0  0  0  0
 14 13  1  0  0  0  0
 15 14  1  0  0  0  0
 15 16  1  0  0  0  0
 17 18  1  0  0  0  0
 18 16  1  0  0  0  0
M  END
>  <MODEL>
1

>  <REMARK>
  Name = ZINC02172168
                            x       y       z     vdW  Elec       q    Type
                         _______ _______ _______ _____ _____    ______ ____

>  <TORSDO>
F 6

>  <minimizedAffinity>
-6.5211925098819146

$$$$
ZINC02172168
 OpenBabel10211214533D

 18 18  0  0  0  0  0  0  0  0999 V2000
   50.6770   52.8710   18.5520 C   0  0  0  0  0  0  0  0  0  0  0  0
   50.3780   51.9730   17.5910 N   0  0  0  0  0  0  0  0  0  0  0  0
   50.8600   51.9850   16.7500 H   0  0  0  0  0  0  0  0  0  0  0  0
   50.0070   52.9240   19.5640 O   0  0  0  0  0  0  0  0  0  0  0  0
   49.3710   51.0250   17.8090 C   0  0  0  0  0  0  0  0  0  0  0  0
   49.6210   49.9170   18.6070 C   0  0  0  0  0  0  0  0  0  0  0  0
   48.6260   48.9830   18.8200 C   0  0  0  0  0  0  0  0  0  0  0  0
   47.3810   49.1510   18.2390 C   0  0  0  0  0  0  0  0  0  0  0  0
   46.1340   47.9740   18.5070 Cl  0  0  0  0  0  0  0  0  0  0  0  0
   47.1310   50.2540   17.4430 C   0  0  0  0  0  0  0  0  0  0  0  0
   48.1210   51.1940   17.2310 C   0  0  0  0  0  0  0  0  0  0  0  0
   47.8450   52.3980   16.3680 C   0  0  0  0  0  0  0  0  0  0  0  0
   51.7220   53.7050   18.3910 O   0  0  0  0  0  0  0  0  0  0  0  0
   52.1320   54.4780   19.5500 C   0  0  0  0  0  0  0  0  0  0  0  0
   51.8280   55.9580   19.3100 C   0  0  0  0  0  0  0  0  0  0  0  0
   50.4570   56.2190   19.6140 O   0  0  0  0  0  0  0  0  0  0  0  0
   49.2700   57.3430   21.3940 C   0  0  0  0  0  0  0  0  0  0  0  0
   50.1470   56.1500   21.0070 C   0  0  0  0  0  0  0  0  0  0  0  0
  1  4  2  0  0  0  0
  2  5  1  0  0  0  0
  2  1  1  0  0  0  0
  3  2  1  0  0  0  0
  5  6  2  0  0  0  0
  6  7  1  0  0  0  0
  8  9  1  0  0  0  0
  8  7  2  0  0  0  0
 10  8  1  0  0  0  0
 11 10  2  0  0  0  0
 11  5  1  0  0  0  0
 12 11  1  0  0  0  0
 13  1  1  0  0  0  0
 13 14  1  0  0  0  0
 15 14  1  0  0  0  0
 15 16  1  0  0  0  0
 16 18  1  0  0  0  0
 18 17  1  0  0  0  0
M  END
>  <MODEL>
2

>  <REMARK>
  Name = ZINC02172168
                            x       y       z     vdW  Elec       q    Type
                         _______ _______ _______ _____ _____    ______ ____

>  <TORSDO>
F 6

>  <minimizedAffinity>
-6.452757537352527

$$$$
ZINC02172168
 OpenBabel10211214533D

 18 18  0  0  0  0  0  0  0  0999 V2000
   50.3470   53.3580   18.5370 C   0  0  0  0  0  0  0  0  0  0  0  0
   50.4660   52.2130   17.8340 N   0  0  0  0  0  0  0  0  0  0  0  0
   51.2200   52.0870   17.2370 H   0  0  0  0  0  0  0  0  0  0  0  0
   49.3530   53.5590   19.2060 O   0  0  0  0  0  0  0  0  0  0  0  0
   49.5020   51.2060   17.9680 C   0  0  0  0  0  0  0  0  0  0  0  0
   48.3050   51.2930   17.2690 C   0  0  0  0  0  0  0  0  0  0  0  0
   47.3560   50.2980   17.4030 C   0  0  0  0  0  0  0  0  0  0  0  0
   47.5980   49.2160   18.2320 C   0  0  0  0  0  0  0  0  0  0  0  0
   46.4020   47.9690   18.3990 Cl  0  0  0  0  0  0  0  0  0  0  0  0
   48.7890   49.1290   18.9290 C   0  0  0  0  0  0  0  0  0  0  0  0
   49.7440   50.1190   18.7940 C   0  0  0  0  0  0  0  0  0  0  0  0
   51.0440   50.0190   19.5490 C   0  0  0  0  0  0  0  0  0  0  0  0
   51.3320   54.2750   18.5000 O   0  0  0  0  0  0  0  0  0  0  0  0
   51.0510   55.5680   19.1010 C   0  0  0  0  0  0  0  0  0  0  0  0
   52.2290   55.9880   19.9810 C   0  0  0  0  0  0  0  0  0  0  0  0
   52.5540   54.9270   20.8810 O   0  0  0  0  0  0  0  0  0  0  0  0
   51.3830   53.2170   22.1220 C   0  0  0  0  0  0  0  0  0  0  0  0
   51.5840   54.7180   21.9080 C   0  0  0  0  0  0  0  0  0  0  0  0
  1  4  2  0  0  0  0
  2  5  1  0  0  0  0
  2  1  1  0  0  0  0
  3  2  1  0  0  0  0
  5 11  2  0  0  0  0
  6  7  2  0  0  0  0
  6  5  1  0  0  0  0
  7  8  1  0  0  0  0
  8  9  1  0  0  0  0
  8 10  2  0  0  0  0
 11 10  1  0  0  0  0
 11 12  1  0  0  0  0
 13  1  1  0  0  0  0
 13 14  1  0  0  0  0
 14 15  1  0  0  0  0
 15 16  1  0  0  0  0
 16 18  1  0  0  0  0
 18 17  1  0  0  0  0
M  END
>  <MODEL>
3

>  <REMARK>
  Name = ZINC02172168
                            x       y       z     vdW  Elec       q    Type
                         _______ _______ _______ _____ _____    ______ ____

>  <TORSDO>
F 6

>  <minimizedAffinity>
-6.2042181779024217

$$$$
ZINC02172168
 OpenBabel10211214533D

 18 18  0  0  0  0  0  0  0  0999 V2000
   50.3180   51.0580   17.8750 C   0  0  0  0  0  0  0  0  0  0  0  0
   50.0360   49.7810   17.5450 N   0  0  0  0  0  0  0  0  0  0  0  0
   50.7550   49.1640   17.3410 H   0  0  0  0  0  0  0  0  0  0  0  0
   49.4170   51.8580   18.0320 O   0  0  0  0  0  0  0  0  0  0  0  0
   48.7050   49.3480   17.4970 C   0  0  0  0  0  0  0  0  0  0  0  0
   48.0640   48.9410   18.6600 C   0  0  0  0  0  0  0  0  0  0  0  0
   46.7520   48.5150   18.6100 C   0  0  0  0  0  0  0  0  0  0  0  0
   46.0750   48.4930   17.4030 C   0  0  0  0  0  0  0  0  0  0  0  0
   44.4260   47.9550   17.3440 Cl  0  0  0  0  0  0  0  0  0  0  0  0
   46.7120   48.8980   16.2440 C   0  0  0  0  0  0  0  0  0  0  0  0
   48.0230   49.3310   16.2890 C   0  0  0  0  0  0  0  0  0  0  0  0
   48.7130   49.7770   15.0260 C   0  0  0  0  0  0  0  0  0  0  0  0
   51.5980   51.4440   18.0370 O   0  0  0  0  0  0  0  0  0  0  0  0
   52.4420   50.5960   18.8600 C   0  0  0  0  0  0  0  0  0  0  0  0
   52.6770   51.2690   20.2130 C   0  0  0  0  0  0  0  0  0  0  0  0
   52.4930   52.6800   20.0820 O   0  0  0  0  0  0  0  0  0  0  0  0
   50.7040   52.3420   21.6720 C   0  0  0  0  0  0  0  0  0  0  0  0
   51.8080   53.2810   21.1830 C   0  0  0  0  0  0  0  0  0  0  0  0
  1  4  2  0  0  0  0
  1 13  1  0  0  0  0
  2  1  1  0  0  0  0
  3  2  1  0  0  0  0
  5  2  1  0  0  0  0
  5  6  2  0  0  0  0
  7  6  1  0  0  0  0
  8  7  2  0  0  0  0
  9  8  1  0  0  0  0
 10 11  2  0  0  0  0
 10  8  1  0  0  0  0
 11  5  1  0  0  0  0
 12 11  1  0  0  0  0
 13 14  1  0  0  0  0
 14 15  1  0  0  0  0
 16 15  1  0  0  0  0
 16 18  1  0  0  0  0
 18 17  1  0  0  0  0
M  END
>  <MODEL>
4

>  <REMARK>
  Name = ZINC02172168
                            x       y       z     vdW  Elec       q    Type
                         _______ _______ _______ _____ _____    ______ ____

>  <TORSDO>
F 6

>  <minimizedAffinity>
-6.0457942984954691

$$$$
ZINC02172168
 OpenBabel10211214533D

 18 18  0  0  0  0  0  0  0  0999 V2000
   51.2410   52.4030   20.6910 C   0  0  0  0  0  0  0  0  0  0  0  0
   51.3650   53.5630   20.0150 N   0  0  0  0  0  0  0  0  0  0  0  0
   51.8740   53.5910   19.1900 H   0  0  0  0  0  0  0  0  0  0  0  0
   50.6910   52.3860   21.7750 O   0  0  0  0  0  0  0  0  0  0  0  0
   50.7600   54.7270   20.5050 C   0  0  0  0  0  0  0  0  0  0  0  0
   51.3920   55.4790   21.4870 C   0  0  0  0  0  0  0  0  0  0  0  0
   50.7920   56.6260   21.9680 C   0  0  0  0  0  0  0  0  0  0  0  0
   49.5630   57.0260   21.4730 C   0  0  0  0  0  0  0  0  0  0  0  0
   48.8120   58.4680   22.0810 Cl  0  0  0  0  0  0  0  0  0  0  0  0
   48.9320   56.2780   20.4950 C   0  0  0  0  0  0  0  0  0  0  0  0
   49.5300   55.1320   20.0070 C   0  0  0  0  0  0  0  0  0  0  0  0
   48.8440   54.3220   18.9380 C   0  0  0  0  0  0  0  0  0  0  0  0
   51.7200   51.2610   20.1610 O   0  0  0  0  0  0  0  0  0  0  0  0
   51.2480   50.9010   18.8360 C   0  0  0  0  0  0  0  0  0  0  0  0
   49.8120   50.3850   18.9280 C   0  0  0  0  0  0  0  0  0  0  0  0
   49.5090   49.6070   17.7690 O   0  0  0  0  0  0  0  0  0  0  0  0
   47.4120   48.7200   18.5800 C   0  0  0  0  0  0  0  0  0  0  0  0
   48.8100   48.3930   18.0490 C   0  0  0  0  0  0  0  0  0  0  0  0
  1  4  2  0  0  0  0
  2  5  1  0  0  0  0
  2  1  1  0  0  0  0
  3  2  1  0  0  0  0
  5  6  2  0  0  0  0
  6  7  1  0  0  0  0
  8  7  2  0  0  0  0
  8  9  1  0  0  0  0
 10  8  1  0  0  0  0
 11 10  2  0  0  0  0
 11  5  1  0  0  0  0
 12 11  1  0  0  0  0
 13  1  1  0  0  0  0
 14 15  1  0  0  0  0
 14 13  1  0  0  0  0
 16 18  1  0  0  0  0
 16 15  1  0  0  0  0
 18 17  1  0  0  0  0
M  END
>  <MODEL>
5

>  <REMARK>
  Name = ZINC02172168
                            x       y       z     vdW  Elec       q    Type
                         _______ _______ _______ _____ _____    ______ ____

>  <TORSDO>
F 6

>  <minimizedAffinity>
-5.9562953476656189

$$$$
ZINC02172168
 OpenBabel10211214533D

 18 18  0  0  0  0  0  0  0  0999 V2000
   49.9180   51.1050   17.5020 C   0  0  0  0  0  0  0  0  0  0  0  0
   49.7180   49.7870   17.3040 N   0  0  0  0  0  0  0  0  0  0  0  0
   50.3340   49.1410   17.6820 H   0  0  0  0  0  0  0  0  0  0  0  0
   49.2060   51.9180   16.9460 O   0  0  0  0  0  0  0  0  0  0  0  0
   48.6180   49.3510   16.5550 C   0  0  0  0  0  0  0  0  0  0  0  0
   48.6550   49.4100   15.1680 C   0  0  0  0  0  0  0  0  0  0  0  0
   47.5700   48.9790   14.4310 C   0  0  0  0  0  0  0  0  0  0  0  0
   46.4460   48.4880   15.0730 C   0  0  0  0  0  0  0  0  0  0  0  0
   45.0830   47.9490   14.1440 Cl  0  0  0  0  0  0  0  0  0  0  0  0
   46.4080   48.4280   16.4550 C   0  0  0  0  0  0  0  0  0  0  0  0
   47.4930   48.8530   17.1960 C   0  0  0  0  0  0  0  0  0  0  0  0
   47.4520   48.7810   18.7010 C   0  0  0  0  0  0  0  0  0  0  0  0
   50.9040   51.5210   18.3200 O   0  0  0  0  0  0  0  0  0  0  0  0
   52.1930   50.8660   18.1830 C   0  0  0  0  0  0  0  0  0  0  0  0
   52.5320   50.1290   19.4790 C   0  0  0  0  0  0  0  0  0  0  0  0
   52.9970   51.0650   20.4530 O   0  0  0  0  0  0  0  0  0  0  0  0
   51.7430   52.8090   21.5610 C   0  0  0  0  0  0  0  0  0  0  0  0
   52.0690   51.3150   21.5100 C   0  0  0  0  0  0  0  0  0  0  0  0
  1 13  1  0  0  0  0
  2  1  1  0  0  0  0
  2  3  1  0  0  0  0
  4  1  2  0  0  0  0
  5 11  1  0  0  0  0
  5  2  1  0  0  0  0
  6  5  2  0  0  0  0
  7  8  2  0  0  0  0
  7  6  1  0  0  0  0
  8 10  1  0  0  0  0
  9  8  1  0  0  0  0
 10 11  2  0  0  0  0
 11 12  1  0  0  0  0
 14 13  1  0  0  0  0
 14 15  1  0  0  0  0
 15 16  1  0  0  0  0
 16 18  1  0  0  0  0
 18 17  1  0  0  0  0
M  END
>  <MODEL>
6

>  <REMARK>
  Name = ZINC02172168
                            x       y       z     vdW  Elec       q    Type
                         _______ _______ _______ _____ _____    ______ ____

>  <TORSDO>
F 6

>  <minimizedAffinity>
-5.8750641800917949

$$$$
ZINC02172168
 OpenBabel10211214533D

 18 18  0  0  0  0  0  0  0  0999 V2000
   49.0480   48.7400   18.4540 C   0  0  0  0  0  0  0  0  0  0  0  0
   49.2040   48.0820   17.2870 N   0  0  0  0  0  0  0  0  0  0  0  0
   50.0700   47.7160   17.0490 H   0  0  0  0  0  0  0  0  0  0  0  0
   47.9920   49.2850   18.7070 O   0  0  0  0  0  0  0  0  0  0  0  0
   48.1150   47.9250   16.4210 C   0  0  0  0  0  0  0  0  0  0  0  0
   47.1580   46.9520   16.6770 C   0  0  0  0  0  0  0  0  0  0  0  0
   46.0850   46.8000   15.8210 C   0  0  0  0  0  0  0  0  0  0  0  0
   45.9640   47.6160   14.7090 C   0  0  0  0  0  0  0  0  0  0  0  0
   44.6150   47.4210   13.6340 Cl  0  0  0  0  0  0  0  0  0  0  0  0
   46.9170   48.5850   14.4530 C   0  0  0  0  0  0  0  0  0  0  0  0
   47.9890   48.7450   15.3090 C   0  0  0  0  0  0  0  0  0  0  0  0
   49.0230   49.8050   15.0320 C   0  0  0  0  0  0  0  0  0  0  0  0
   50.0610   48.7890   19.3390 O   0  0  0  0  0  0  0  0  0  0  0  0
   50.9170   49.9620   19.2980 C   0  0  0  0  0  0  0  0  0  0  0  0
   52.2740   49.6260   19.9180 C   0  0  0  0  0  0  0  0  0  0  0  0
   52.8660   50.8150   20.4430 O   0  0  0  0  0  0  0  0  0  0  0  0
   51.7180   52.4390   21.8170 C   0  0  0  0  0  0  0  0  0  0  0  0
   52.0130   51.9600   20.3930 C   0  0  0  0  0  0  0  0  0  0  0  0
  1  4  2  0  0  0  0
  1 13  1  0  0  0  0
  2  1  1  0  0  0  0
  3  2  1  0  0  0  0
  5  6  1  0  0  0  0
  5  2  1  0  0  0  0
  7  6  2  0  0  0  0
  8  7  1  0  0  0  0
  9  8  1  0  0  0  0
 10  8  2  0  0  0  0
 10 11  1  0  0  0  0
 11  5  2  0  0  0  0
 12 11  1  0  0  0  0
 14 13  1  0  0  0  0
 14 15  1  0  0  0  0
 15 16  1  0  0  0  0
 18 16  1  0  0  0  0
 18 17  1  0  0  0  0
M  END
>  <MODEL>
7

>  <REMARK>
  Name = ZINC02172168
                            x       y       z     vdW  Elec       q    Type
                         _______ _______ _______ _____ _____    ______ ____

>  <TORSDO>
F 6

>  <minimizedAffinity>
-5.8062642236293645

$$$$
ZINC02172168
 OpenBabel10211214533D

 18 18  0  0  0  0  0  0  0  0999 V2000
   51.8410   51.9960   18.9000 C   0  0  0  0  0  0  0  0  0  0  0  0
   50.5140   51.8920   19.1190 N   0  0  0  0  0  0  0  0  0  0  0  0
   50.1200   52.2940   19.9080 H   0  0  0  0  0  0  0  0  0  0  0  0
   52.3510   51.4070   17.9680 O   0  0  0  0  0  0  0  0  0  0  0  0
   49.7070   51.2030   18.2060 C   0  0  0  0  0  0  0  0  0  0  0  0
   49.1950   51.8610   17.0950 C   0  0  0  0  0  0  0  0  0  0  0  0
   48.3990   51.1790   16.1970 C   0  0  0  0  0  0  0  0  0  0  0  0
   48.1110   49.8410   16.4010 C   0  0  0  0  0  0  0  0  0  0  0  0
   47.1090   48.9870   15.2700 Cl  0  0  0  0  0  0  0  0  0  0  0  0
   48.6200   49.1830   17.5070 C   0  0  0  0  0  0  0  0  0  0  0  0
   49.4210   49.8600   18.4060 C   0  0  0  0  0  0  0  0  0  0  0  0
   49.9800   49.1410   19.6070 C   0  0  0  0  0  0  0  0  0  0  0  0
   52.5990   52.7570   19.7130 O   0  0  0  0  0  0  0  0  0  0  0  0
   51.9060   53.5170   20.7390 C   0  0  0  0  0  0  0  0  0  0  0  0
   52.0060   55.0100   20.4230 C   0  0  0  0  0  0  0  0  0  0  0  0
   52.4880   55.7080   21.5730 O   0  0  0  0  0  0  0  0  0  0  0  0
   50.5020   57.0620   21.8280 C   0  0  0  0  0  0  0  0  0  0  0  0
   51.4650   56.0800   22.4980 C   0  0  0  0  0  0  0  0  0  0  0  0
  1  2  1  0  0  0  0
  1 13  1  0  0  0  0
  2  3  1  0  0  0  0
  4  1  2  0  0  0  0
  5 11  1  0  0  0  0
  5  2  1  0  0  0  0
  6  5  2  0  0  0  0
  7  8  2  0  0  0  0
  7  6  1  0  0  0  0
  8 10  1  0  0  0  0
  9  8  1  0  0  0  0
 10 11  2  0  0  0  0
 11 12  1  0  0  0  0
 13 14  1  0  0  0  0
 15 14  1  0  0  0  0
 15 16  1  0  0  0  0
 16 18  1  0  0  0  0
 17 18  1  0  0  0  0
M  END
>  <MODEL>
8

>  <REMARK>
  Name = ZINC02172168
                            x       y       z     vdW  Elec       q    Type
                         _______ _______ _______ _____ _____    ______ ____

>  <TORSDO>
F 6

>  <minimizedAffinity>
-5.7187420160121967

$$$$
ZINC02172168
 OpenBabel10211214533D

 18 18  0  0  0  0  0  0  0  0999 V2000
   49.7910   54.3650   18.8870 C   0  0  0  0  0  0  0  0  0  0  0  0
   50.0070   53.4860   17.8860 N   0  0  0  0  0  0  0  0  0  0  0  0
   50.5740   53.7330   17.1390 H   0  0  0  0  0  0  0  0  0  0  0  0
   49.0020   54.0970   19.7710 O   0  0  0  0  0  0  0  0  0  0  0  0
   49.4130   52.2190   17.9270 C   0  0  0  0  0  0  0  0  0  0  0  0
   49.9930   51.2030   18.6740 C   0  0  0  0  0  0  0  0  0  0  0  0
   49.4050   49.9540   18.7130 C   0  0  0  0  0  0  0  0  0  0  0  0
   48.2380   49.7150   18.0080 C   0  0  0  0  0  0  0  0  0  0  0  0
   47.5020   48.1440   18.0580 Cl  0  0  0  0  0  0  0  0  0  0  0  0
   47.6580   50.7270   17.2640 C   0  0  0  0  0  0  0  0  0  0  0  0
   48.2400   51.9790   17.2260 C   0  0  0  0  0  0  0  0  0  0  0  0
   47.6040   53.0820   16.4190 C   0  0  0  0  0  0  0  0  0  0  0  0
   50.4550   55.5360   18.9080 O   0  0  0  0  0  0  0  0  0  0  0  0
   50.8500   56.0460   20.2090 C   0  0  0  0  0  0  0  0  0  0  0  0
   52.2090   55.4620   20.5950 C   0  0  0  0  0  0  0  0  0  0  0  0
   52.8600   56.3380   21.5170 O   0  0  0  0  0  0  0  0  0  0  0  0
   52.9290   58.7540   21.4680 C   0  0  0  0  0  0  0  0  0  0  0  0
   53.5060   57.4540   20.9020 C   0  0  0  0  0  0  0  0  0  0  0  0
  1 13  1  0  0  0  0
  1  4  2  0  0  0  0
  2  5  1  0  0  0  0
  2  1  1  0  0  0  0
  3  2  1  0  0  0  0
  5  6  2  0  0  0  0
  6  7  1  0  0  0  0
  8  9  1  0  0  0  0
  8  7  2  0  0  0  0
 10  8  1  0  0  0  0
 11 10  2  0  0  0  0
 11  5  1  0  0  0  0
 12 11  1  0  0  0  0
 13 14  1  0  0  0  0
 14 15  1  0  0  0  0
 15 16  1  0  0  0  0
 18 17  1  0  0  0  0
 18 16  1  0  0  0  0
M  END
>  <MODEL>
9

>  <REMARK>
  Name = ZINC02172168
                            x       y       z     vdW  Elec       q    Type
                         _______ _______ _______ _____ _____    ______ ____

>  <TORSDO>
F 6

>  <minimizedAffinity>
-5.6511611873907528

$$$$
ZINC48704019
 OpenBabel10211214543D

 21 22  0  0  0  0  0  0  0  0999 V2000
   50.7240   52.8710   18.6240 C   0  0  0  0  0  0  0  0  0  0  0  0
   52.0480   53.2830   18.6940 C   0  0  0  0  0  0  0  0  0  0  0  0
   52.5100   53.9340   19.8200 C   0  0  0  0  0  0  0  0  0  0  0  0
   51.6510   54.1760   20.8830 C   0  0  0  0  0  0  0  0  0  0  0  0
   50.3280   53.7650   20.8140 C   0  0  0  0  0  0  0  0  0  0  0  0
   49.8630   53.1190   19.6850 C   0  0  0  0  0  0  0  0  0  0  0  0
   50.1960   50.8650   17.4570 C   0  0  0  0  0  0  0  0  0  0  0  0
   50.2550   52.2110   17.4810 N   0  0  0  0  0  0  0  0  0  0  0  0
   49.9710   52.7230   16.7070 H   0  0  0  0  0  0  0  0  0  0  0  0
   50.6210   50.2210   18.3970 O   0  0  0  0  0  0  0  0  0  0  0  0
   47.6980   49.3220   15.0180 C   0  0  0  0  0  0  0  0  0  0  0  0
   48.3220   49.8810   16.2700 C   0  0  0  0  0  0  0  0  0  0  0  0
   49.6190   50.1750   16.2930 C   0  0  0  0  0  0  0  0  0  0  0  0
   47.4770   50.1060   17.4970 C   0  0  0  0  0  0  0  0  0  0  0  0
   47.1520   48.8870   18.3650 C   0  0  0  0  0  0  0  0  0  0  0  0
   46.0630   49.5220   17.4980 C   0  0  0  0  0  0  0  0  0  0  0  0
   52.1070   54.8170   21.9920 O   0  0  0  0  0  0  0  0  0  0  0  0
   51.4180   56.0060   22.3840 C   0  0  0  0  0  0  0  0  0  0  0  0
   52.0340   57.2110   21.6710 C   0  0  0  0  0  0  0  0  0  0  0  0
   53.4490   57.2120   21.8730 O   0  0  0  0  0  0  0  0  0  0  0  0
   54.2020   57.5620   20.7100 C   0  0  0  0  0  0  0  0  0  0  0  0
  1  2  2  0  0  0  0
  1  6  1  0  0  0  0
  2  3  1  0  0  0  0
  3  4  2  0  0  0  0
  4 17  1  0  0  0  0
  5  4  1  0  0  0  0
  6  5  2  0  0  0  0
  7  8  1  0  0  0  0
  7 10  2  0  0  0  0
  8  1  1  0  0  0  0
  9  8  1  0  0  0  0
 11 12  1  0  0  0  0
 12 13  2  0  0  0  0
 12 14  1  0  0  0  0
 13  7  1  0  0  0  0
 14 16  1  0  0  0  0
 14 15  1  0  0  0  0
 16 15  1  0  0  0  0
 17 18  1  0  0  0  0
 19 20  1  0  0  0  0
 19 18  1  0  0  0  0
 21 20  1  0  0  0  0
M  END
>  <MODEL>
1

>  <REMARK>
  Name = ZINC48704019
                            x       y       z     vdW  Elec       q    Type
                         _______ _______ _______ _____ _____    ______ ____

>  <TORSDO>
F 7

>  <minimizedAffinity>
-7.0131740679645223

$$$$
ZINC48704019
 OpenBabel10211214543D

 21 22  0  0  0  0  0  0  0  0999 V2000
   50.9960   52.2800   18.9790 C   0  0  0  0  0  0  0  0  0  0  0  0
   50.3960   52.4060   20.2250 C   0  0  0  0  0  0  0  0  0  0  0  0
   50.8340   53.3710   21.1080 C   0  0  0  0  0  0  0  0  0  0  0  0
   51.8750   54.2170   20.7520 C   0  0  0  0  0  0  0  0  0  0  0  0
   52.4750   54.0920   19.5070 C   0  0  0  0  0  0  0  0  0  0  0  0
   52.0420   53.1220   18.6250 C   0  0  0  0  0  0  0  0  0  0  0  0
   49.5950   51.5960   17.1810 C   0  0  0  0  0  0  0  0  0  0  0  0
   50.5520   51.3000   18.0830 N   0  0  0  0  0  0  0  0  0  0  0  0
   50.9330   50.4090   18.1100 H   0  0  0  0  0  0  0  0  0  0  0  0
   49.0630   52.6890   17.1960 O   0  0  0  0  0  0  0  0  0  0  0  0
   47.6060   48.9390   15.2970 C   0  0  0  0  0  0  0  0  0  0  0  0
   48.1120   49.8470   16.3870 C   0  0  0  0  0  0  0  0  0  0  0  0
   49.1920   50.5960   16.1810 C   0  0  0  0  0  0  0  0  0  0  0  0
   47.3950   49.9070   17.7110 C   0  0  0  0  0  0  0  0  0  0  0  0
   47.6040   48.7420   18.6820 C   0  0  0  0  0  0  0  0  0  0  0  0
   46.2690   48.9000   17.9510 C   0  0  0  0  0  0  0  0  0  0  0  0
   52.3060   55.1680   21.6230 O   0  0  0  0  0  0  0  0  0  0  0  0
   51.3110   55.8250   22.4100 C   0  0  0  0  0  0  0  0  0  0  0  0
   50.7960   57.0540   21.6590 C   0  0  0  0  0  0  0  0  0  0  0  0
   49.3940   56.9140   21.4210 O   0  0  0  0  0  0  0  0  0  0  0  0
   48.6530   58.1240   21.5920 C   0  0  0  0  0  0  0  0  0  0  0  0
  1  2  1  0  0  0  0
  2  3  2  0  0  0  0
  4  3  1  0  0  0  0
  4 17  1  0  0  0  0
  5  4  2  0  0  0  0
  6  1  2  0  0  0  0
  6  5  1  0  0  0  0
  7 10  2  0  0  0  0
  7  8  1  0  0  0  0
  8  9  1  0  0  0  0
  8  1  1  0  0  0  0
 11 12  1  0  0  0  0
 12 14  1  0  0  0  0
 13 12  2  0  0  0  0
 13  7  1  0  0  0  0
 14 16  1  0  0  0  0
 14 15  1  0  0  0  0
 16 15  1  0  0  0  0
 17 18  1  0  0  0  0
 19 18  1  0  0  0  0
 20 21  1  0  0  0  0
 20 19  1  0  0  0  0
M  END
>  <MODEL>
2

>  <REMARK>
  Name = ZINC48704019
                            x       y       z     vdW  Elec       q    Type
                         _______ _______ _______ _____ _____    ______ ____

>  <TORSDO>
F 7

>  <minimizedAffinity>
-6.5555376006135448

$$$$
ZINC48704019
 OpenBabel10211214543D

 21 22  0  0  0  0  0  0  0  0999 V2000
   49.3720   53.2600   18.0790 C   0  0  0  0  0  0  0  0  0  0  0  0
   49.9570   52.0010   18.0310 C   0  0  0  0  0  0  0  0  0  0  0  0
   49.2550   50.9330   17.5110 C   0  0  0  0  0  0  0  0  0  0  0  0
   47.9650   51.1160   17.0350 C   0  0  0  0  0  0  0  0  0  0  0  0
   47.3800   52.3740   17.0820 C   0  0  0  0  0  0  0  0  0  0  0  0
   48.0790   53.4420   17.6080 C   0  0  0  0  0  0  0  0  0  0  0  0
   50.2590   54.4520   19.9390 C   0  0  0  0  0  0  0  0  0  0  0  0
   50.0840   54.3440   18.6070 N   0  0  0  0  0  0  0  0  0  0  0  0
   50.4530   55.0180   18.0140 H   0  0  0  0  0  0  0  0  0  0  0  0
   49.7340   53.6500   20.6870 O   0  0  0  0  0  0  0  0  0  0  0  0
   51.3370   57.6350   21.7460 C   0  0  0  0  0  0  0  0  0  0  0  0
   50.5010   56.6000   21.0410 C   0  0  0  0  0  0  0  0  0  0  0  0
   51.0830   55.5390   20.4870 C   0  0  0  0  0  0  0  0  0  0  0  0
   49.0050   56.7640   20.9640 C   0  0  0  0  0  0  0  0  0  0  0  0
   48.4520   57.7050   19.8900 C   0  0  0  0  0  0  0  0  0  0  0  0
   48.4220   58.1210   21.3620 C   0  0  0  0  0  0  0  0  0  0  0  0
   47.2730   50.0630   16.5230 O   0  0  0  0  0  0  0  0  0  0  0  0
   46.2440   49.5040   17.3410 C   0  0  0  0  0  0  0  0  0  0  0  0
   46.6620   48.1050   17.8000 C   0  0  0  0  0  0  0  0  0  0  0  0
   46.2000   47.8840   19.1350 O   0  0  0  0  0  0  0  0  0  0  0  0
   44.9450   47.2060   19.2100 C   0  0  0  0  0  0  0  0  0  0  0  0
  1  8  1  0  0  0  0
  2  1  1  0  0  0  0
  3  2  2  0  0  0  0
  4  5  2  0  0  0  0
  4  3  1  0  0  0  0
  5  6  1  0  0  0  0
  6  1  2  0  0  0  0
  7 13  1  0  0  0  0
  7 10  2  0  0  0  0
  8  7  1  0  0  0  0
  9  8  1  0  0  0  0
 12 11  1  0  0  0  0
 13 12  2  0  0  0  0
 14 12  1  0  0  0  0
 14 16  1  0  0  0  0
 15 14  1  0  0  0  0
 15 16  1  0  0  0  0
 17  4  1  0  0  0  0
 17 18  1  0  0  0  0
 18 19  1  0  0  0  0
 19 20  1  0  0  0  0
 20 21  1  0  0  0  0
M  END
>  <MODEL>
3

>  <REMARK>
  Name = ZINC48704019
                            x       y       z     vdW  Elec       q    Type
                         _______ _______ _______ _____ _____    ______ ____

>  <TORSDO>
F 7

>  <minimizedAffinity>
-6.4895542745963972

$$$$
ZINC48704019
 OpenBabel10211214543D

 21 22  0  0  0  0  0  0  0  0999 V2000
   50.0520   49.9690   18.1980 C   0  0  0  0  0  0  0  0  0  0  0  0
   50.0020   49.7140   19.5620 C   0  0  0  0  0  0  0  0  0  0  0  0
   50.8120   50.4220   20.4270 C   0  0  0  0  0  0  0  0  0  0  0  0
   51.6740   51.3910   19.9340 C   0  0  0  0  0  0  0  0  0  0  0  0
   51.7240   51.6460   18.5710 C   0  0  0  0  0  0  0  0  0  0  0  0
   50.9200   50.9330   17.7040 C   0  0  0  0  0  0  0  0  0  0  0  0
   48.1650   49.8460   16.7520 C   0  0  0  0  0  0  0  0  0  0  0  0
   49.2320   49.2490   17.3200 N   0  0  0  0  0  0  0  0  0  0  0  0
   49.4310   48.3210   17.1200 H   0  0  0  0  0  0  0  0  0  0  0  0
   47.8710   50.9850   17.0600 O   0  0  0  0  0  0  0  0  0  0  0  0
   45.2410   48.1150   15.0150 C   0  0  0  0  0  0  0  0  0  0  0  0
   46.1300   48.7140   16.0740 C   0  0  0  0  0  0  0  0  0  0  0  0
   47.3570   49.1200   15.7620 C   0  0  0  0  0  0  0  0  0  0  0  0
   45.6270   48.8520   17.4880 C   0  0  0  0  0  0  0  0  0  0  0  0
   45.8840   47.6870   18.4470 C   0  0  0  0  0  0  0  0  0  0  0  0
   44.4710   47.9480   17.9200 C   0  0  0  0  0  0  0  0  0  0  0  0
   52.4710   52.0890   20.7870 O   0  0  0  0  0  0  0  0  0  0  0  0
   51.8210   52.9590   21.7160 C   0  0  0  0  0  0  0  0  0  0  0  0
   51.5650   54.3130   21.0520 C   0  0  0  0  0  0  0  0  0  0  0  0
   52.2920   55.3290   21.7460 O   0  0  0  0  0  0  0  0  0  0  0  0
   51.7480   55.6620   23.0240 C   0  0  0  0  0  0  0  0  0  0  0  0
  1  2  1  0  0  0  0
  2  3  2  0  0  0  0
  4  3  1  0  0  0  0
  4 17  1  0  0  0  0
  5  4  2  0  0  0  0
  6  1  2  0  0  0  0
  6  5  1  0  0  0  0
  7 10  2  0  0  0  0
  7  8  1  0  0  0  0
  8  1  1  0  0  0  0
  9  8  1  0  0  0  0
 11 12  1  0  0  0  0
 12 14  1  0  0  0  0
 13 12  2  0  0  0  0
 13  7  1  0  0  0  0
 14 16  1  0  0  0  0
 14 15  1  0  0  0  0
 16 15  1  0  0  0  0
 17 18  1  0  0  0  0
 19 18  1  0  0  0  0
 19 20  1  0  0  0  0
 20 21  1  0  0  0  0
M  END
>  <MODEL>
4

>  <REMARK>
  Name = ZINC48704019
                            x       y       z     vdW  Elec       q    Type
                         _______ _______ _______ _____ _____    ______ ____

>  <TORSDO>
F 7

>  <minimizedAffinity>
-6.4598135898139084

$$$$
ZINC48704019
 OpenBabel10211214543D

 21 22  0  0  0  0  0  0  0  0999 V2000
   48.7050   53.2740   18.4200 C   0  0  0  0  0  0  0  0  0  0  0  0
   49.8680   52.5170   18.4760 C   0  0  0  0  0  0  0  0  0  0  0  0
   50.1220   51.5710   17.5040 C   0  0  0  0  0  0  0  0  0  0  0  0
   49.2170   51.3750   16.4710 C   0  0  0  0  0  0  0  0  0  0  0  0
   48.0540   52.1310   16.4160 C   0  0  0  0  0  0  0  0  0  0  0  0
   47.7960   53.0740   17.3900 C   0  0  0  0  0  0  0  0  0  0  0  0
   48.6050   55.5440   19.1300 C   0  0  0  0  0  0  0  0  0  0  0  0
   48.4460   54.2340   19.4060 N   0  0  0  0  0  0  0  0  0  0  0  0
   48.1520   53.9570   20.2880 H   0  0  0  0  0  0  0  0  0  0  0  0
   49.0460   55.8880   18.0500 O   0  0  0  0  0  0  0  0  0  0  0  0
   48.8550   58.2460   21.8130 C   0  0  0  0  0  0  0  0  0  0  0  0
   49.1920   57.0970   20.8990 C   0  0  0  0  0  0  0  0  0  0  0  0
   48.2470   56.5560   20.1350 C   0  0  0  0  0  0  0  0  0  0  0  0
   50.5990   56.5610   20.8510 C   0  0  0  0  0  0  0  0  0  0  0  0
   50.9950   55.5180   21.9000 C   0  0  0  0  0  0  0  0  0  0  0  0
   51.5410   56.9440   21.9930 C   0  0  0  0  0  0  0  0  0  0  0  0
   49.4680   50.4420   15.5140 O   0  0  0  0  0  0  0  0  0  0  0  0
   48.4730   49.4370   15.3110 C   0  0  0  0  0  0  0  0  0  0  0  0
   48.6060   48.3620   16.3910 C   0  0  0  0  0  0  0  0  0  0  0  0
   47.3990   48.2990   17.1530 O   0  0  0  0  0  0  0  0  0  0  0  0
   47.5060   48.8690   18.4590 C   0  0  0  0  0  0  0  0  0  0  0  0
  1  2  1  0  0  0  0
  1  8  1  0  0  0  0
  3  2  2  0  0  0  0
  4  3  1  0  0  0  0
  5  4  2  0  0  0  0
  5  6  1  0  0  0  0
  6  1  2  0  0  0  0
  7  8  1  0  0  0  0
  7 13  1  0  0  0  0
  8  9  1  0  0  0  0
 10  7  2  0  0  0  0
 12 11  1  0  0  0  0
 13 12  2  0  0  0  0
 14 12  1  0  0  0  0
 14 15  1  0  0  0  0
 14 16  1  0  0  0  0
 15 16  1  0  0  0  0
 17  4  1  0  0  0  0
 18 17  1  0  0  0  0
 18 19  1  0  0  0  0
 19 20  1  0  0  0  0
 20 21  1  0  0  0  0
M  END
>  <MODEL>
5

>  <REMARK>
  Name = ZINC48704019
                            x       y       z     vdW  Elec       q    Type
                         _______ _______ _______ _____ _____    ______ ____

>  <TORSDO>
F 7

>  <minimizedAffinity>
-6.3435420160275564

$$$$
ZINC48704019
 OpenBabel10211214543D

 21 22  0  0  0  0  0  0  0  0999 V2000
   49.8880   53.2670   19.2700 C   0  0  0  0  0  0  0  0  0  0  0  0
   50.7930   52.2140   19.3190 C   0  0  0  0  0  0  0  0  0  0  0  0
   50.7620   51.2320   18.3500 C   0  0  0  0  0  0  0  0  0  0  0  0
   49.8280   51.2970   17.3260 C   0  0  0  0  0  0  0  0  0  0  0  0
   48.9250   52.3490   17.2760 C   0  0  0  0  0  0  0  0  0  0  0  0
   48.9500   53.3280   18.2490 C   0  0  0  0  0  0  0  0  0  0  0  0
   50.5210   55.4420   20.0010 C   0  0  0  0  0  0  0  0  0  0  0  0
   49.9190   54.2630   20.2540 N   0  0  0  0  0  0  0  0  0  0  0  0
   49.5060   54.1050   21.1170 H   0  0  0  0  0  0  0  0  0  0  0  0
   51.1040   55.6130   18.9480 O   0  0  0  0  0  0  0  0  0  0  0  0
   49.2560   58.2170   22.2950 C   0  0  0  0  0  0  0  0  0  0  0  0
   49.3580   57.2240   21.1670 C   0  0  0  0  0  0  0  0  0  0  0  0
   50.4750   56.5210   21.0000 C   0  0  0  0  0  0  0  0  0  0  0  0
   48.1960   57.0270   20.2290 C   0  0  0  0  0  0  0  0  0  0  0  0
   47.9870   58.0750   19.1330 C   0  0  0  0  0  0  0  0  0  0  0  0
   47.0320   58.0150   20.3270 C   0  0  0  0  0  0  0  0  0  0  0  0
   49.7990   50.3290   16.3710 O   0  0  0  0  0  0  0  0  0  0  0  0
   48.7330   50.3880   15.4210 C   0  0  0  0  0  0  0  0  0  0  0  0
   48.1580   48.9850   15.2120 C   0  0  0  0  0  0  0  0  0  0  0  0
   49.0970   48.0120   15.6750 O   0  0  0  0  0  0  0  0  0  0  0  0
   48.5480   47.0690   16.5980 C   0  0  0  0  0  0  0  0  0  0  0  0
  1  2  1  0  0  0  0
  1  8  1  0  0  0  0
  3  2  2  0  0  0  0
  4  3  1  0  0  0  0
  5  4  2  0  0  0  0
  5  6  1  0  0  0  0
  6  1  2  0  0  0  0
  7  8  1  0  0  0  0
  7 13  1  0  0  0  0
  8  9  1  0  0  0  0
 10  7  2  0  0  0  0
 12 11  1  0  0  0  0
 13 12  2  0  0  0  0
 14 16  1  0  0  0  0
 14 12  1  0  0  0  0
 15 14  1  0  0  0  0
 15 16  1  0  0  0  0
 17  4  1  0  0  0  0
 18 17  1  0  0  0  0
 19 18  1  0  0  0  0
 19 20  1  0  0  0  0
 20 21  1  0  0  0  0
M  END
>  <MODEL>
6

>  <REMARK>
  Name = ZINC48704019
                            x       y       z     vdW  Elec       q    Type
                         _______ _______ _______ _____ _____    ______ ____

>  <TORSDO>
F 7

>  <minimizedAffinity>
-6.3300240748659862

$$$$
ZINC48704019
 OpenBabel10211214543D

 21 22  0  0  0  0  0  0  0  0999 V2000
   50.3700   50.9980   17.6780 C   0  0  0  0  0  0  0  0  0  0  0  0
   51.7340   51.0680   17.9320 C   0  0  0  0  0  0  0  0  0  0  0  0
   52.2820   52.2250   18.4470 C   0  0  0  0  0  0  0  0  0  0  0  0
   51.4710   53.3190   18.7120 C   0  0  0  0  0  0  0  0  0  0  0  0
   50.1090   53.2500   18.4600 C   0  0  0  0  0  0  0  0  0  0  0  0
   49.5600   52.0950   17.9380 C   0  0  0  0  0  0  0  0  0  0  0  0
   49.3390   48.8750   17.9850 C   0  0  0  0  0  0  0  0  0  0  0  0
   49.8140   49.8250   17.1550 N   0  0  0  0  0  0  0  0  0  0  0  0
   49.7700   49.6950   16.1950 H   0  0  0  0  0  0  0  0  0  0  0  0
   49.4620   49.0030   19.1880 O   0  0  0  0  0  0  0  0  0  0  0  0
   46.6620   46.4810   16.6940 C   0  0  0  0  0  0  0  0  0  0  0  0
   47.3440   47.6230   17.4000 C   0  0  0  0  0  0  0  0  0  0  0  0
   48.6730   47.6850   17.4370 C   0  0  0  0  0  0  0  0  0  0  0  0
   46.5220   48.6980   18.0640 C   0  0  0  0  0  0  0  0  0  0  0  0
   45.0490   48.8090   17.6630 C   0  0  0  0  0  0  0  0  0  0  0  0
   46.0510   49.8660   17.1950 C   0  0  0  0  0  0  0  0  0  0  0  0
   52.0120   54.4590   19.2200 O   0  0  0  0  0  0  0  0  0  0  0  0
   51.9390   54.6360   20.6370 C   0  0  0  0  0  0  0  0  0  0  0  0
   51.6730   56.1090   20.9530 C   0  0  0  0  0  0  0  0  0  0  0  0
   50.2890   56.3990   20.7410 O   0  0  0  0  0  0  0  0  0  0  0  0
   49.7750   57.4270   21.5910 C   0  0  0  0  0  0  0  0  0  0  0  0
  1  2  2  0  0  0  0
  1  6  1  0  0  0  0
  2  3  1  0  0  0  0
  3  4  2  0  0  0  0
  4 17  1  0  0  0  0
  5  4  1  0  0  0  0
  6  5  2  0  0  0  0
  7 10  2  0  0  0  0
  8  1  1  0  0  0  0
  8  7  1  0  0  0  0
  9  8  1  0  0  0  0
 11 12  1  0  0  0  0
 12 13  2  0  0  0  0
 12 14  1  0  0  0  0
 13  7  1  0  0  0  0
 15 14  1  0  0  0  0
 16 15  1  0  0  0  0
 16 14  1  0  0  0  0
 17 18  1  0  0  0  0
 18 19  1  0  0  0  0
 20 19  1  0  0  0  0
 20 21  1  0  0  0  0
M  END
>  <MODEL>
7

>  <REMARK>
  Name = ZINC48704019
                            x       y       z     vdW  Elec       q    Type
                         _______ _______ _______ _____ _____    ______ ____

>  <TORSDO>
F 7

>  <minimizedAffinity>
-6.2184234961663281

$$$$
ZINC48704019
 OpenBabel10211214543D

 21 22  0  0  0  0  0  0  0  0999 V2000
   49.8930   49.7480   17.8320 C   0  0  0  0  0  0  0  0  0  0  0  0
   49.7210   49.2920   19.1320 C   0  0  0  0  0  0  0  0  0  0  0  0
   50.3710   49.9180   20.1760 C   0  0  0  0  0  0  0  0  0  0  0  0
   51.1970   51.0050   19.9260 C   0  0  0  0  0  0  0  0  0  0  0  0
   51.3700   51.4610   18.6280 C   0  0  0  0  0  0  0  0  0  0  0  0
   50.7250   50.8310   17.5820 C   0  0  0  0  0  0  0  0  0  0  0  0
   48.2100   49.7270   16.1500 C   0  0  0  0  0  0  0  0  0  0  0  0
   49.2340   49.1120   16.7730 N   0  0  0  0  0  0  0  0  0  0  0  0
   49.5150   48.2280   16.4870 H   0  0  0  0  0  0  0  0  0  0  0  0
   47.8080   50.8010   16.5560 O   0  0  0  0  0  0  0  0  0  0  0  0
   45.6620   48.0250   13.8750 C   0  0  0  0  0  0  0  0  0  0  0  0
   46.3830   48.5240   15.1000 C   0  0  0  0  0  0  0  0  0  0  0  0
   47.5760   49.1000   14.9800 C   0  0  0  0  0  0  0  0  0  0  0  0
   45.7530   48.3710   16.4600 C   0  0  0  0  0  0  0  0  0  0  0  0
   45.8590   47.0020   17.1380 C   0  0  0  0  0  0  0  0  0  0  0  0
   44.5180   47.4740   16.5700 C   0  0  0  0  0  0  0  0  0  0  0  0
   51.8380   51.6220   20.9550 O   0  0  0  0  0  0  0  0  0  0  0  0
   51.0350   52.4040   21.8420 C   0  0  0  0  0  0  0  0  0  0  0  0
   51.1800   53.8850   21.4880 C   0  0  0  0  0  0  0  0  0  0  0  0
   51.8930   54.5570   22.5280 O   0  0  0  0  0  0  0  0  0  0  0  0
   51.7170   55.9750   22.5310 C   0  0  0  0  0  0  0  0  0  0  0  0
  1  2  1  0  0  0  0
  2  3  2  0  0  0  0
  4  3  1  0  0  0  0
  4 17  1  0  0  0  0
  5  4  2  0  0  0  0
  6  1  2  0  0  0  0
  6  5  1  0  0  0  0
  7 10  2  0  0  0  0
  7  8  1  0  0  0  0
  8  1  1  0  0  0  0
  9  8  1  0  0  0  0
 11 12  1  0  0  0  0
 12 14  1  0  0  0  0
 13 12  2  0  0  0  0
 13  7  1  0  0  0  0
 14 16  1  0  0  0  0
 14 15  1  0  0  0  0
 16 15  1  0  0  0  0
 17 18  1  0  0  0  0
 19 18  1  0  0  0  0
 19 20  1  0  0  0  0
 20 21  1  0  0  0  0
M  END
>  <MODEL>
8

>  <REMARK>
  Name = ZINC48704019
                            x       y       z     vdW  Elec       q    Type
                         _______ _______ _______ _____ _____    ______ ____

>  <TORSDO>
F 7

>  <minimizedAffinity>
-6.1944052715086446

$$$$
ZINC48704019
 OpenBabel10211214543D

 21 22  0  0  0  0  0  0  0  0999 V2000
   51.3370   53.4720   18.7930 C   0  0  0  0  0  0  0  0  0  0  0  0
   52.2990   52.5290   18.4530 C   0  0  0  0  0  0  0  0  0  0  0  0
   51.9230   51.2330   18.1650 C   0  0  0  0  0  0  0  0  0  0  0  0
   50.5850   50.8710   18.2130 C   0  0  0  0  0  0  0  0  0  0  0  0
   49.6230   51.8120   18.5520 C   0  0  0  0  0  0  0  0  0  0  0  0
   49.9980   53.1080   18.8480 C   0  0  0  0  0  0  0  0  0  0  0  0
   52.1600   55.1020   20.3200 C   0  0  0  0  0  0  0  0  0  0  0  0
   51.7180   54.7870   19.0870 N   0  0  0  0  0  0  0  0  0  0  0  0
   51.6650   55.4720   18.4020 H   0  0  0  0  0  0  0  0  0  0  0  0
   52.1550   54.2620   21.2000 O   0  0  0  0  0  0  0  0  0  0  0  0
   52.4500   58.6340   21.7350 C   0  0  0  0  0  0  0  0  0  0  0  0
   51.8920   57.3030   21.3050 C   0  0  0  0  0  0  0  0  0  0  0  0
   52.6450   56.4610   20.6040 C   0  0  0  0  0  0  0  0  0  0  0  0
   50.4790   56.9240   21.6720 C   0  0  0  0  0  0  0  0  0  0  0  0
   49.3710   57.2850   20.6790 C   0  0  0  0  0  0  0  0  0  0  0  0
   49.5040   58.0580   21.9930 C   0  0  0  0  0  0  0  0  0  0  0  0
   50.2150   49.5940   17.9280 O   0  0  0  0  0  0  0  0  0  0  0  0
   48.9180   49.4060   17.3580 C   0  0  0  0  0  0  0  0  0  0  0  0
   48.0660   48.5540   18.3010 C   0  0  0  0  0  0  0  0  0  0  0  0
   46.7150   49.0210   18.2740 O   0  0  0  0  0  0  0  0  0  0  0  0
   46.4590   50.0010   17.2650 C   0  0  0  0  0  0  0  0  0  0  0  0
  1  6  1  0  0  0  0
  1  8  1  0  0  0  0
  2  1  2  0  0  0  0
  3  4  2  0  0  0  0
  3  2  1  0  0  0  0
  4  5  1  0  0  0  0
  5  6  2  0  0  0  0
  7 13  1  0  0  0  0
  7 10  2  0  0  0  0
  8  7  1  0  0  0  0
  9  8  1  0  0  0  0
 12 14  1  0  0  0  0
 12 11  1  0  0  0  0
 13 12  2  0  0  0  0
 14 16  1  0  0  0  0
 15 14  1  0  0  0  0
 15 16  1  0  0  0  0
 17  4  1  0  0  0  0
 18 17  1  0  0  0  0
 18 19  1  0  0  0  0
 20 19  1  0  0  0  0
 21 20  1  0  0  0  0
M  END
>  <MODEL>
9

>  <REMARK>
  Name = ZINC48704019
                            x       y       z     vdW  Elec       q    Type
                         _______ _______ _______ _____ _____    ______ ____

>  <TORSDO>
F 7

>  <minimizedAffinity>
-6.1709048615186379

$$$$
ZINC37573529
 OpenBabel10211214553D

 23 24  0  0  1  0  0  0  0  0999 V2000
   49.9010   50.7510   18.1510 S   0  0  0  0  0  0  0  0  0  0  0  0
   50.5530   50.2160   19.2950 O   0  0  0  0  0  0  0  0  0  0  0  0
   50.4660   50.6780   16.8490 O   0  0  0  0  0  0  0  0  0  0  0  0
   48.3240   49.9700   18.0590 C   0  0  0  0  0  0  0  0  0  0  0  0
   48.0650   48.8440   18.8180 C   0  0  0  0  0  0  0  0  0  0  0  0
   46.8280   48.2310   18.7460 C   0  0  0  0  0  0  0  0  0  0  0  0
   45.8500   48.7440   17.9150 C   0  0  0  0  0  0  0  0  0  0  0  0
   46.1080   49.8700   17.1570 C   0  0  0  0  0  0  0  0  0  0  0  0
   47.3440   50.4860   17.2320 C   0  0  0  0  0  0  0  0  0  0  0  0
   44.5010   48.0750   17.8360 C   0  0  0  0  0  0  0  0  0  0  0  0
   44.5210   46.8390   18.6300 N   0  0  0  0  0  0  0  0  0  0  0  0
   43.6050   46.6760   19.0200 H   0  0  0  0  0  0  0  0  0  0  0  0
   45.1930   46.9300   19.3770 H   0  0  0  0  0  0  0  0  0  0  0  0
   44.7790   46.0640   18.0390 H   0  0  0  0  0  0  0  0  0  0  0  0
   49.6350   52.3550   18.4630 N   0  0  0  0  0  0  0  0  0  0  0  0
   48.9130   52.8230   18.0170 H   0  0  0  0  0  0  0  0  0  0  0  0
   51.8360   53.3830   18.7560 C   0  0  0  0  0  0  0  0  0  0  0  0
   50.4920   53.0670   19.4150 C   0  0  1  0  0  0  0  0  0  0  0  0
   49.8230   54.3520   19.8300 C   0  0  0  0  0  0  0  0  0  0  0  0
   48.5910   54.8160   19.5070 C   0  0  0  0  0  0  0  0  0  0  0  0
   48.1810   56.0360   20.0110 C   0  0  0  0  0  0  0  0  0  0  0  0
   49.0230   56.7340   20.8120 C   0  0  0  0  0  0  0  0  0  0  0  0
   50.4440   55.6550   20.8810 S   0  0  0  0  0  0  0  0  0  0  0  0
  1 15  1  0  0  0  0
  1  2  2  0  0  0  0
  3  1  2  0  0  0  0
  4  1  1  0  0  0  0
  4  5  2  0  0  0  0
  6  5  1  0  0  0  0
  7  6  2  0  0  0  0
  8  9  2  0  0  0  0
  8  7  1  0  0  0  0
  9  4  1  0  0  0  0
 10  7  1  0  0  0  0
 10 11  1  0  0  0  0
 11 12  1  0  0  0  0
 11 13  1  0  0  0  0
 14 11  1  0  0  0  0
 16 15  1  0  0  0  0
 17 18  1  0  0  0  0
 18 15  1  6  0  0  0
 18 19  1  0  0  0  0
 19 23  1  0  0  0  0
 20 19  2  0  0  0  0
 20 21  1  0  0  0  0
 21 22  2  0  0  0  0
 22 23  1  0  0  0  0
M  END
>  <MODEL>
1

>  <REMARK>
  Name = ZINC37573529
                            x       y       z     vdW  Elec       q    Type
                         _______ _______ _______ _____ _____    ______ ____

>  <TORSDO>
F 6

>  <minimizedAffinity>
-7.4501754159088716

$$$$
ZINC37573529
 OpenBabel10211214553D

 23 24  0  0  1  0  0  0  0  0999 V2000
   52.3270   51.9390   18.4780 S   0  0  0  0  0  0  0  0  0  0  0  0
   53.3180   52.4420   17.5920 O   0  0  0  0  0  0  0  0  0  0  0  0
   52.4700   50.6970   19.1540 O   0  0  0  0  0  0  0  0  0  0  0  0
   52.0930   53.1650   19.7220 C   0  0  0  0  0  0  0  0  0  0  0  0
   51.8010   52.7870   21.0180 C   0  0  0  0  0  0  0  0  0  0  0  0
   51.6170   53.7480   21.9950 C   0  0  0  0  0  0  0  0  0  0  0  0
   51.7260   55.0870   21.6740 C   0  0  0  0  0  0  0  0  0  0  0  0
   52.0190   55.4660   20.3770 C   0  0  0  0  0  0  0  0  0  0  0  0
   52.2070   54.5050   19.4020 C   0  0  0  0  0  0  0  0  0  0  0  0
   51.5250   56.1360   22.7380 C   0  0  0  0  0  0  0  0  0  0  0  0
   52.1580   57.3920   22.3140 N   0  0  0  0  0  0  0  0  0  0  0  0
   51.4680   58.1270   22.2970 H   0  0  0  0  0  0  0  0  0  0  0  0
   52.5490   57.2760   21.3920 H   0  0  0  0  0  0  0  0  0  0  0  0
   52.8920   57.6340   22.9620 H   0  0  0  0  0  0  0  0  0  0  0  0
   50.9190   51.8470   17.6110 N   0  0  0  0  0  0  0  0  0  0  0  0
   50.9480   51.6730   16.6570 H   0  0  0  0  0  0  0  0  0  0  0  0
   48.9230   53.2560   17.7120 C   0  0  0  0  0  0  0  0  0  0  0  0
   49.6310   52.0260   18.2850 C   0  0  1  0  0  0  0  0  0  0  0  0
   48.7750   50.8060   18.0660 C   0  0  0  0  0  0  0  0  0  0  0  0
   47.6430   50.6780   17.3310 C   0  0  0  0  0  0  0  0  0  0  0  0
   47.0180   49.4460   17.2730 C   0  0  0  0  0  0  0  0  0  0  0  0
   47.5540   48.4030   17.9530 C   0  0  0  0  0  0  0  0  0  0  0  0
   48.9910   49.1520   18.7040 S   0  0  0  0  0  0  0  0  0  0  0  0
  1  3  2  0  0  0  0
  1  4  1  0  0  0  0
  2  1  2  0  0  0  0
  4  5  1  0  0  0  0
  5  6  2  0  0  0  0
  7  6  1  0  0  0  0
  7 10  1  0  0  0  0
  8  7  2  0  0  0  0
  9  4  2  0  0  0  0
  9  8  1  0  0  0  0
 11 10  1  0  0  0  0
 11 14  1  0  0  0  0
 12 11  1  0  0  0  0
 13 11  1  0  0  0  0
 15  1  1  0  0  0  0
 16 15  1  0  0  0  0
 17 18  1  0  0  0  0
 18 15  1  6  0  0  0
 19 18  1  0  0  0  0
 19 23  1  0  0  0  0
 20 19  2  0  0  0  0
 21 20  1  0  0  0  0
 21 22  2  0  0  0  0
 22 23  1  0  0  0  0
M  END
>  <MODEL>
2

>  <REMARK>
  Name = ZINC37573529
                            x       y       z     vdW  Elec       q    Type
                         _______ _______ _______ _____ _____    ______ ____

>  <TORSDO>
F 6

>  <minimizedAffinity>
-7.3606765117385651

$$$$
ZINC37573529
 OpenBabel10211214553D

 23 24  0  0  1  0  0  0  0  0999 V2000
   52.1160   51.7020   19.7010 S   0  0  0  0  0  0  0  0  0  0  0  0
   52.4510   51.7590   18.3210 O   0  0  0  0  0  0  0  0  0  0  0  0
   52.9090   50.9990   20.6490 O   0  0  0  0  0  0  0  0  0  0  0  0
   52.0180   53.3680   20.2650 C   0  0  0  0  0  0  0  0  0  0  0  0
   52.2600   54.4100   19.3900 C   0  0  0  0  0  0  0  0  0  0  0  0
   52.1840   55.7180   19.8320 C   0  0  0  0  0  0  0  0  0  0  0  0
   51.8640   55.9830   21.1500 C   0  0  0  0  0  0  0  0  0  0  0  0
   51.6200   54.9420   22.0250 C   0  0  0  0  0  0  0  0  0  0  0  0
   51.6930   53.6350   21.5820 C   0  0  0  0  0  0  0  0  0  0  0  0
   51.7810   57.4090   21.6320 C   0  0  0  0  0  0  0  0  0  0  0  0
   53.0010   57.7460   22.3780 N   0  0  0  0  0  0  0  0  0  0  0  0
   53.8090   57.4710   21.8410 H   0  0  0  0  0  0  0  0  0  0  0  0
   53.0010   57.2570   23.2600 H   0  0  0  0  0  0  0  0  0  0  0  0
   53.0290   58.7400   22.5450 H   0  0  0  0  0  0  0  0  0  0  0  0
   50.5910   51.0630   19.7930 N   0  0  0  0  0  0  0  0  0  0  0  0
   49.8720   51.5800   20.1860 H   0  0  0  0  0  0  0  0  0  0  0  0
   50.3320   48.7180   20.4380 C   0  0  0  0  0  0  0  0  0  0  0  0
   50.3300   49.7160   19.2790 C   0  0  1  0  0  0  0  0  0  0  0  0
   48.9870   49.6900   18.5960 C   0  0  0  0  0  0  0  0  0  0  0  0
   47.9590   48.8240   18.7670 C   0  0  0  0  0  0  0  0  0  0  0  0
   46.8060   48.9970   18.0250 C   0  0  0  0  0  0  0  0  0  0  0  0
   46.7370   50.0270   17.1460 C   0  0  0  0  0  0  0  0  0  0  0  0
   48.3330   50.7990   17.3580 S   0  0  0  0  0  0  0  0  0  0  0  0
  1 15  1  0  0  0  0
  1  4  1  0  0  0  0
  1  3  2  0  0  0  0
  2  1  2  0  0  0  0
  4  9  2  0  0  0  0
  5  6  2  0  0  0  0
  5  4  1  0  0  0  0
  6  7  1  0  0  0  0
  7 10  1  0  0  0  0
  7  8  2  0  0  0  0
  9  8  1  0  0  0  0
 10 11  1  0  0  0  0
 11 14  1  0  0  0  0
 11 13  1  0  0  0  0
 12 11  1  0  0  0  0
 15 16  1  0  0  0  0
 18 19  1  1  0  0  0
 18 15  1  0  0  0  0
 18 17  1  0  0  0  0
 19 20  2  0  0  0  0
 21 20  1  0  0  0  0
 22 23  1  0  0  0  0
 22 21  2  0  0  0  0
 23 19  1  0  0  0  0
M  END
>  <MODEL>
3

>  <REMARK>
  Name = ZINC37573529
                            x       y       z     vdW  Elec       q    Type
                         _______ _______ _______ _____ _____    ______ ____

>  <TORSDO>
F 6

>  <minimizedAffinity>
-7.2205754691548796

$$$$
ZINC37573529
 OpenBabel10211214553D

 23 24  0  0  1  0  0  0  0  0999 V2000
   49.2320   50.5120   15.9980 S   0  0  0  0  0  0  0  0  0  0  0  0
   48.2950   51.5260   15.6570 O   0  0  0  0  0  0  0  0  0  0  0  0
   50.3760   50.2330   15.2010 O   0  0  0  0  0  0  0  0  0  0  0  0
   49.8240   50.8960   17.6120 C   0  0  0  0  0  0  0  0  0  0  0  0
   50.0060   52.2140   17.9870 C   0  0  0  0  0  0  0  0  0  0  0  0
   50.4710   52.5150   19.2530 C   0  0  0  0  0  0  0  0  0  0  0  0
   50.7540   51.4980   20.1440 C   0  0  0  0  0  0  0  0  0  0  0  0
   50.5720   50.1800   19.7710 C   0  0  0  0  0  0  0  0  0  0  0  0
   50.1030   49.8790   18.5060 C   0  0  0  0  0  0  0  0  0  0  0  0
   51.2620   51.8270   21.5260 C   0  0  0  0  0  0  0  0  0  0  0  0
   52.4780   51.0480   21.7980 N   0  0  0  0  0  0  0  0  0  0  0  0
   53.0900   51.0890   20.9970 H   0  0  0  0  0  0  0  0  0  0  0  0
   52.2280   50.0890   21.9830 H   0  0  0  0  0  0  0  0  0  0  0  0
   52.9500   51.4330   22.6020 H   0  0  0  0  0  0  0  0  0  0  0  0
   48.3780   49.0980   16.1120 N   0  0  0  0  0  0  0  0  0  0  0  0
   48.8370   48.2710   16.3260 H   0  0  0  0  0  0  0  0  0  0  0  0
   46.6070   48.3000   14.6250 C   0  0  0  0  0  0  0  0  0  0  0  0
   46.9300   49.0970   15.8910 C   0  0  1  0  0  0  0  0  0  0  0  0
   46.2420   48.4630   17.0730 C   0  0  0  0  0  0  0  0  0  0  0  0
   46.6900   48.3150   18.3430 C   0  0  0  0  0  0  0  0  0  0  0  0
   45.8760   47.6950   19.2730 C   0  0  0  0  0  0  0  0  0  0  0  0
   44.6550   47.2530   18.8870 C   0  0  0  0  0  0  0  0  0  0  0  0
   44.6220   47.7180   17.1630 S   0  0  0  0  0  0  0  0  0  0  0  0
  1 15  1  0  0  0  0
  1  4  1  0  0  0  0
  2  1  2  0  0  0  0
  3  1  2  0  0  0  0
  4  5  2  0  0  0  0
  4  9  1  0  0  0  0
  5  6  1  0  0  0  0
  6  7  2  0  0  0  0
  7 10  1  0  0  0  0
  8  7  1  0  0  0  0
  9  8  2  0  0  0  0
 10 11  1  0  0  0  0
 11 13  1  0  0  0  0
 11 14  1  0  0  0  0
 12 11  1  0  0  0  0
 15 16  1  0  0  0  0
 18 17  1  1  0  0  0
 18 15  1  0  0  0  0
 18 19  1  0  0  0  0
 19 23  1  0  0  0  0
 19 20  2  0  0  0  0
 20 21  1  0  0  0  0
 22 21  2  0  0  0  0
 23 22  1  0  0  0  0
M  END
>  <MODEL>
4

>  <REMARK>
  Name = ZINC37573529
                            x       y       z     vdW  Elec       q    Type
                         _______ _______ _______ _____ _____    ______ ____

>  <TORSDO>
F 6

>  <minimizedAffinity>
-7.1589098099296109

$$$$
ZINC37573529
 OpenBabel10211214553D

 23 24  0  0  1  0  0  0  0  0999 V2000
   52.2940   51.6480   19.1850 S   0  0  0  0  0  0  0  0  0  0  0  0
   52.9540   50.9260   20.2160 O   0  0  0  0  0  0  0  0  0  0  0  0
   52.8870   51.8740   17.9130 O   0  0  0  0  0  0  0  0  0  0  0  0
   50.7680   50.8190   18.8880 C   0  0  0  0  0  0  0  0  0  0  0  0
   49.8460   51.3610   18.0120 C   0  0  0  0  0  0  0  0  0  0  0  0
   48.6480   50.7110   17.7790 C   0  0  0  0  0  0  0  0  0  0  0  0
   48.3730   49.5190   18.4210 C   0  0  0  0  0  0  0  0  0  0  0  0
   49.2940   48.9760   19.2960 C   0  0  0  0  0  0  0  0  0  0  0  0
   50.4930   49.6240   19.5260 C   0  0  0  0  0  0  0  0  0  0  0  0
   47.0660   48.8110   18.1670 C   0  0  0  0  0  0  0  0  0  0  0  0
   46.1820   49.6820   17.3810 N   0  0  0  0  0  0  0  0  0  0  0  0
   46.3930   50.6480   17.5860 H   0  0  0  0  0  0  0  0  0  0  0  0
   45.2210   49.4900   17.6220 H   0  0  0  0  0  0  0  0  0  0  0  0
   46.3230   49.5080   16.3980 H   0  0  0  0  0  0  0  0  0  0  0  0
   51.9280   53.1380   19.8090 N   0  0  0  0  0  0  0  0  0  0  0  0
   52.3930   53.9250   19.4870 H   0  0  0  0  0  0  0  0  0  0  0  0
   51.5720   53.3680   22.2180 C   0  0  0  0  0  0  0  0  0  0  0  0
   50.9010   53.2650   20.8460 C   0  0  1  0  0  0  0  0  0  0  0  0
   50.0830   54.5050   20.5940 C   0  0  0  0  0  0  0  0  0  0  0  0
   48.9440   54.6440   19.8710 C   0  0  0  0  0  0  0  0  0  0  0  0
   48.3590   55.8920   19.7760 C   0  0  0  0  0  0  0  0  0  0  0  0
   48.9400   56.9410   20.4080 C   0  0  0  0  0  0  0  0  0  0  0  0
   50.3570   56.1710   21.1740 S   0  0  0  0  0  0  0  0  0  0  0  0
  1 15  1  0  0  0  0
  1  2  2  0  0  0  0
  3  1  2  0  0  0  0
  4  1  1  0  0  0  0
  4  9  2  0  0  0  0
  5  4  1  0  0  0  0
  6  5  2  0  0  0  0
  6  7  1  0  0  0  0
  7  8  2  0  0  0  0
  8  9  1  0  0  0  0
 10  7  1  0  0  0  0
 11 12  1  0  0  0  0
 11 13  1  0  0  0  0
 11 10  1  0  0  0  0
 14 11  1  0  0  0  0
 16 15  1  0  0  0  0
 18 15  1  1  0  0  0
 18 17  1  0  0  0  0
 19 18  1  0  0  0  0
 19 23  1  0  0  0  0
 20 19  2  0  0  0  0
 21 20  1  0  0  0  0
 21 22  2  0  0  0  0
 22 23  1  0  0  0  0
M  END
>  <MODEL>
5

>  <REMARK>
  Name = ZINC37573529
                            x       y       z     vdW  Elec       q    Type
                         _______ _______ _______ _____ _____    ______ ____

>  <TORSDO>
F 6

>  <minimizedAffinity>
-7.1211044622114459

$$$$
ZINC37573529
 OpenBabel10211214553D

 23 24  0  0  1  0  0  0  0  0999 V2000
   51.7600   55.3660   21.1750 S   0  0  0  0  0  0  0  0  0  0  0  0
   52.1190   55.5050   22.5430 O   0  0  0  0  0  0  0  0  0  0  0  0
   52.5000   55.9800   20.1280 O   0  0  0  0  0  0  0  0  0  0  0  0
   51.7400   53.6390   20.8320 C   0  0  0  0  0  0  0  0  0  0  0  0
   52.3140   53.1580   19.6700 C   0  0  0  0  0  0  0  0  0  0  0  0
   52.2980   51.8020   19.3990 C   0  0  0  0  0  0  0  0  0  0  0  0
   51.7080   50.9280   20.2910 C   0  0  0  0  0  0  0  0  0  0  0  0
   51.1350   51.4070   21.4540 C   0  0  0  0  0  0  0  0  0  0  0  0
   51.1540   52.7620   21.7260 C   0  0  0  0  0  0  0  0  0  0  0  0
   51.6910   49.4490   19.9960 C   0  0  0  0  0  0  0  0  0  0  0  0
   53.0680   48.9660   19.8310 N   0  0  0  0  0  0  0  0  0  0  0  0
   53.2570   48.8170   18.8510 H   0  0  0  0  0  0  0  0  0  0  0  0
   53.1820   48.0980   20.3320 H   0  0  0  0  0  0  0  0  0  0  0  0
   53.7110   49.6520   20.1960 H   0  0  0  0  0  0  0  0  0  0  0  0
   50.2030   55.9110   21.0370 N   0  0  0  0  0  0  0  0  0  0  0  0
   49.7390   56.2580   21.8150 H   0  0  0  0  0  0  0  0  0  0  0  0
   48.6250   54.6360   19.6700 C   0  0  0  0  0  0  0  0  0  0  0  0
   49.5260   55.8710   19.7380 C   0  0  1  0  0  0  0  0  0  0  0  0
   48.6890   57.1120   19.5680 C   0  0  0  0  0  0  0  0  0  0  0  0
   48.2920   58.0090   20.5040 C   0  0  0  0  0  0  0  0  0  0  0  0
   47.5190   59.0870   20.1140 C   0  0  0  0  0  0  0  0  0  0  0  0
   47.1800   59.2150   18.8090 C   0  0  0  0  0  0  0  0  0  0  0  0
   47.9680   57.7880   18.0810 S   0  0  0  0  0  0  0  0  0  0  0  0
  1  2  2  0  0  0  0
  3  1  2  0  0  0  0
  4  1  1  0  0  0  0
  4  9  2  0  0  0  0
  5  4  1  0  0  0  0
  6  5  2  0  0  0  0
  6  7  1  0  0  0  0
  7  8  2  0  0  0  0
  8  9  1  0  0  0  0
 10  7  1  0  0  0  0
 11 10  1  0  0  0  0
 11 14  1  0  0  0  0
 11 13  1  0  0  0  0
 12 11  1  0  0  0  0
 15  1  1  0  0  0  0
 15 16  1  0  0  0  0
 17 18  1  0  0  0  0
 18 19  1  1  0  0  0
 18 15  1  0  0  0  0
 19 20  2  0  0  0  0
 21 20  1  0  0  0  0
 22 21  2  0  0  0  0
 23 22  1  0  0  0  0
 23 19  1  0  0  0  0
M  END
>  <MODEL>
6

>  <REMARK>
  Name = ZINC37573529
                            x       y       z     vdW  Elec       q    Type
                         _______ _______ _______ _____ _____    ______ ____

>  <TORSDO>
F 6

>  <minimizedAffinity>
-7.0821418250531041

$$$$
ZINC37573529
 OpenBabel10211214553D

 23 24  0  0  1  0  0  0  0  0999 V2000
   49.5770   50.5540   16.5590 S   0  0  0  0  0  0  0  0  0  0  0  0
   50.1900   49.9590   15.4240 O   0  0  0  0  0  0  0  0  0  0  0  0
   49.1730   51.9170   16.5800 O   0  0  0  0  0  0  0  0  0  0  0  0
   48.1400   49.5990   16.9150 C   0  0  0  0  0  0  0  0  0  0  0  0
   46.9390   50.2300   17.1790 C   0  0  0  0  0  0  0  0  0  0  0  0
   45.8110   49.4810   17.4590 C   0  0  0  0  0  0  0  0  0  0  0  0
   45.8840   48.1010   17.4740 C   0  0  0  0  0  0  0  0  0  0  0  0
   47.0850   47.4700   17.2090 C   0  0  0  0  0  0  0  0  0  0  0  0
   48.2110   48.2190   16.9260 C   0  0  0  0  0  0  0  0  0  0  0  0
   44.6540   47.2850   17.7800 C   0  0  0  0  0  0  0  0  0  0  0  0
   44.4740   46.2630   16.7400 N   0  0  0  0  0  0  0  0  0  0  0  0
   45.3490   45.7850   16.5830 H   0  0  0  0  0  0  0  0  0  0  0  0
   44.1740   46.7040   15.8840 H   0  0  0  0  0  0  0  0  0  0  0  0
   43.7770   45.5980   17.0380 H   0  0  0  0  0  0  0  0  0  0  0  0
   50.6250   50.3510   17.8250 N   0  0  0  0  0  0  0  0  0  0  0  0
   51.5740   50.2430   17.6560 H   0  0  0  0  0  0  0  0  0  0  0  0
   50.4930   49.0140   19.8690 C   0  0  0  0  0  0  0  0  0  0  0  0
   50.1190   50.3380   19.2000 C   0  0  1  0  0  0  0  0  0  0  0  0
   50.7290   51.4800   19.9710 C   0  0  0  0  0  0  0  0  0  0  0  0
   51.1210   51.5220   21.2680 C   0  0  0  0  0  0  0  0  0  0  0  0
   51.6620   52.6920   21.7670 C   0  0  0  0  0  0  0  0  0  0  0  0
   51.7840   53.7630   20.9460 C   0  0  0  0  0  0  0  0  0  0  0  0
   51.1280   53.1280   19.4110 S   0  0  0  0  0  0  0  0  0  0  0  0
  1  3  2  0  0  0  0
  1  4  1  0  0  0  0
  1 15  1  0  0  0  0
  2  1  2  0  0  0  0
  4  9  2  0  0  0  0
  4  5  1  0  0  0  0
  5  6  2  0  0  0  0
  6  7  1  0  0  0  0
  7 10  1  0  0  0  0
  8  7  2  0  0  0  0
  9  8  1  0  0  0  0
 11 14  1  0  0  0  0
 11 10  1  0  0  0  0
 12 11  1  0  0  0  0
 13 11  1  0  0  0  0
 16 15  1  0  0  0  0
 18 15  1  1  0  0  0
 18 17  1  0  0  0  0
 18 19  1  0  0  0  0
 19 20  2  0  0  0  0
 20 21  1  0  0  0  0
 22 21  2  0  0  0  0
 23 19  1  0  0  0  0
 23 22  1  0  0  0  0
M  END
>  <MODEL>
7

>  <REMARK>
  Name = ZINC37573529
                            x       y       z     vdW  Elec       q    Type
                         _______ _______ _______ _____ _____    ______ ____

>  <TORSDO>
F 6

>  <minimizedAffinity>
-7.0426208212888275

$$$$
ZINC37573529
 OpenBabel10211214553D

 23 24  0  0  1  0  0  0  0  0999 V2000
   51.5840   54.0400   20.6000 S   0  0  0  0  0  0  0  0  0  0  0  0
   52.5310   54.4620   19.6290 O   0  0  0  0  0  0  0  0  0  0  0  0
   51.9460   53.7640   21.9470 O   0  0  0  0  0  0  0  0  0  0  0  0
   50.3350   55.2810   20.6600 C   0  0  0  0  0  0  0  0  0  0  0  0
   49.1810   55.1370   19.9130 C   0  0  0  0  0  0  0  0  0  0  0  0
   48.2010   56.1110   19.9580 C   0  0  0  0  0  0  0  0  0  0  0  0
   48.3750   57.2290   20.7510 C   0  0  0  0  0  0  0  0  0  0  0  0
   49.5280   57.3730   21.4990 C   0  0  0  0  0  0  0  0  0  0  0  0
   50.5060   56.3970   21.4570 C   0  0  0  0  0  0  0  0  0  0  0  0
   47.3070   58.2910   20.8010 C   0  0  0  0  0  0  0  0  0  0  0  0
   47.4230   59.1580   19.6200 N   0  0  0  0  0  0  0  0  0  0  0  0
   47.6380   60.0990   19.9140 H   0  0  0  0  0  0  0  0  0  0  0  0
   46.5500   59.1550   19.1140 H   0  0  0  0  0  0  0  0  0  0  0  0
   48.1590   58.8160   19.0220 H   0  0  0  0  0  0  0  0  0  0  0  0
   50.8790   52.6630   20.0080 N   0  0  0  0  0  0  0  0  0  0  0  0
   50.3420   52.1050   20.5910 H   0  0  0  0  0  0  0  0  0  0  0  0
   52.0230   51.1010   18.5140 C   0  0  0  0  0  0  0  0  0  0  0  0
   51.0660   52.2910   18.6040 C   0  0  1  0  0  0  0  0  0  0  0  0
   49.7370   51.9130   18.0030 C   0  0  0  0  0  0  0  0  0  0  0  0
   48.8210   52.7020   17.3900 C   0  0  0  0  0  0  0  0  0  0  0  0
   47.6580   52.1300   16.9090 C   0  0  0  0  0  0  0  0  0  0  0  0
   47.4670   50.7970   17.0640 C   0  0  0  0  0  0  0  0  0  0  0  0
   48.9630   50.3060   17.9080 S   0  0  0  0  0  0  0  0  0  0  0  0
  1  4  1  0  0  0  0
  1  3  2  0  0  0  0
  2  1  2  0  0  0  0
  4  9  2  0  0  0  0
  5  6  2  0  0  0  0
  5  4  1  0  0  0  0
  6  7  1  0  0  0  0
  7 10  1  0  0  0  0
  7  8  2  0  0  0  0
  9  8  1  0  0  0  0
 11 12  1  0  0  0  0
 11 10  1  0  0  0  0
 13 11  1  0  0  0  0
 14 11  1  0  0  0  0
 15 16  1  0  0  0  0
 15  1  1  0  0  0  0
 17 18  1  0  0  0  0
 18 19  1  1  0  0  0
 18 15  1  0  0  0  0
 20 19  2  0  0  0  0
 21 22  2  0  0  0  0
 21 20  1  0  0  0  0
 22 23  1  0  0  0  0
 23 19  1  0  0  0  0
M  END
>  <MODEL>
8

>  <REMARK>
  Name = ZINC37573529
                            x       y       z     vdW  Elec       q    Type
                         _______ _______ _______ _____ _____    ______ ____

>  <TORSDO>
F 6

>  <minimizedAffinity>
-7.00141306549361

$$$$
ZINC37573529
 OpenBabel10211214553D

 23 24  0  0  1  0  0  0  0  0999 V2000
   48.6180   51.6560   16.5450 S   0  0  0  0  0  0  0  0  0  0  0  0
   48.1350   52.9220   16.1160 O   0  0  0  0  0  0  0  0  0  0  0  0
   49.4480   50.8410   15.7280 O   0  0  0  0  0  0  0  0  0  0  0  0
   49.5060   51.9370   18.0410 C   0  0  0  0  0  0  0  0  0  0  0  0
   50.2190   50.9070   18.6250 C   0  0  0  0  0  0  0  0  0  0  0  0
   50.9150   51.1260   19.7990 C   0  0  0  0  0  0  0  0  0  0  0  0
   50.8990   52.3750   20.3880 C   0  0  0  0  0  0  0  0  0  0  0  0
   50.1870   53.4060   19.8050 C   0  0  0  0  0  0  0  0  0  0  0  0
   49.4940   53.1880   18.6290 C   0  0  0  0  0  0  0  0  0  0  0  0
   51.6580   52.6140   21.6690 C   0  0  0  0  0  0  0  0  0  0  0  0
   52.2630   51.3550   22.1220 N   0  0  0  0  0  0  0  0  0  0  0  0
   52.7230   51.5020   23.0080 H   0  0  0  0  0  0  0  0  0  0  0  0
   52.9390   51.0430   21.4410 H   0  0  0  0  0  0  0  0  0  0  0  0
   51.5450   50.6550   22.2270 H   0  0  0  0  0  0  0  0  0  0  0  0
   47.2890   50.7450   16.9280 N   0  0  0  0  0  0  0  0  0  0  0  0
   46.4410   51.1780   17.1090 H   0  0  0  0  0  0  0  0  0  0  0  0
   46.9670   48.8020   18.3780 C   0  0  0  0  0  0  0  0  0  0  0  0
   47.3960   49.2860   16.9910 C   0  0  1  0  0  0  0  0  0  0  0  0
   46.5010   48.6700   15.9460 C   0  0  0  0  0  0  0  0  0  0  0  0
   46.7340   48.4880   14.6230 C   0  0  0  0  0  0  0  0  0  0  0  0
   45.7570   47.8930   13.8470 C   0  0  0  0  0  0  0  0  0  0  0  0
   44.5950   47.5110   14.4310 C   0  0  0  0  0  0  0  0  0  0  0  0
   44.8620   47.9870   16.1310 S   0  0  0  0  0  0  0  0  0  0  0  0
  1 15  1  0  0  0  0
  1  4  1  0  0  0  0
  2  1  2  0  0  0  0
  3  1  2  0  0  0  0
  4  5  2  0  0  0  0
  4  9  1  0  0  0  0
  5  6  1  0  0  0  0
  6  7  2  0  0  0  0
  7 10  1  0  0  0  0
  8  7  1  0  0  0  0
  9  8  2  0  0  0  0
 10 11  1  0  0  0  0
 11 14  1  0  0  0  0
 11 12  1  0  0  0  0
 13 11  1  0  0  0  0
 15 18  1  0  0  0  0
 15 16  1  0  0  0  0
 18 19  1  1  0  0  0
 18 17  1  0  0  0  0
 19 23  1  0  0  0  0
 20 19  2  0  0  0  0
 21 22  2  0  0  0  0
 21 20  1  0  0  0  0
 22 23  1  0  0  0  0
M  END
>  <MODEL>
9

>  <REMARK>
  Name = ZINC37573529
                            x       y       z     vdW  Elec       q    Type
                         _______ _______ _______ _____ _____    ______ ____

>  <TORSDO>
F 6

>  <minimizedAffinity>
-6.9792889437691521

$$$$
ZINC62861059
 OpenBabel10211214563D

 25 26  0  0  1  0  0  0  0  0999 V2000
   50.3210   50.8110   17.7830 C   0  0  0  0  0  0  0  0  0  0  0  0
   50.2900   51.0440   19.1100 N   0  0  0  0  0  0  0  0  0  0  0  0
   49.4520   51.2760   19.5420 H   0  0  0  0  0  0  0  0  0  0  0  0
   51.3790   50.5920   17.2320 O   0  0  0  0  0  0  0  0  0  0  0  0
   49.0430   50.8220   16.9850 C   0  0  2  0  0  0  0  0  0  0  0  0
   47.8960   50.2870   17.8480 C   0  0  0  0  0  0  0  0  0  0  0  0
   48.1850   48.8290   18.2180 C   0  0  0  0  0  0  0  0  0  0  0  0
   48.3780   48.0120   16.9370 C   0  0  0  0  0  0  0  0  0  0  0  0
   49.5050   48.5580   16.1700 N   0  0  0  0  0  0  0  0  0  0  0  0
   49.6630   47.9850   15.3550 H   0  0  0  0  0  0  0  0  0  0  0  0
   50.3330   48.5560   16.7450 H   0  0  0  0  0  0  0  0  0  0  0  0
   49.2040   49.9310   15.7510 C   0  0  0  0  0  0  0  0  0  0  0  0
   48.7270   52.2530   16.5450 C   0  0  0  0  0  0  0  0  0  0  0  0
   48.5300   54.0530   18.2660 C   0  0  0  0  0  0  0  0  0  0  0  0
   47.7960   52.9060   17.5690 C   0  0  0  0  0  0  0  0  0  0  0  0
   51.5190   50.9480   19.9010 C   0  0  2  0  0  0  0  0  0  0  0  0
   51.2110   51.2770   21.3640 C   0  0  0  0  0  0  0  0  0  0  0  0
   50.6520   52.6970   21.4600 C   0  0  0  0  0  0  0  0  0  0  0  0
   51.6850   53.6890   20.9220 C   0  0  2  0  0  0  0  0  0  0  0  0
   51.1260   55.1100   21.0180 C   0  0  0  0  0  0  0  0  0  0  0  0
   51.9930   53.3610   19.4590 C   0  0  0  0  0  0  0  0  0  0  0  0
   52.5520   51.9400   19.3630 C   0  0  0  0  0  0  0  0  0  0  0  0
   52.0780   49.5270   19.8050 C   0  0  0  0  0  0  0  0  0  0  0  0
   53.3080   49.5470   19.0760 O   0  0  0  0  0  0  0  0  0  0  0  0
   53.4360   48.7810   18.5000 H   0  0  0  0  0  0  0  0  0  0  0  0
  1  2  1  0  0  0  0
  2  3  1  0  0  0  0
  4  1  2  0  0  0  0
  5 13  1  6  0  0  0
  5  1  1  0  0  0  0
  5  6  1  0  0  0  0
  6  7  1  0  0  0  0
  8  7  1  0  0  0  0
  9 11  1  0  0  0  0
  9  8  1  0  0  0  0
 10  9  1  0  0  0  0
 12  9  1  0  0  0  0
 12  5  1  0  0  0  0
 13 15  1  0  0  0  0
 15 14  1  0  0  0  0
 16  2  1  6  0  0  0
 16 17  1  0  0  0  0
 17 18  1  0  0  0  0
 19 20  1  6  0  0  0
 19 18  1  0  0  0  0
 21 19  1  0  0  0  0
 22 21  1  0  0  0  0
 22 16  1  0  0  0  0
 23 16  1  0  0  0  0
 24 23  1  0  0  0  0
 25 24  1  0  0  0  0
M  END
>  <MODEL>
1

>  <REMARK>
  Name = ZINC62861059
                            x       y       z     vdW  Elec       q    Type
                         _______ _______ _______ _____ _____    ______ ____

>  <TORSDO>
F 6

>  <minimizedAffinity>
-7.3708425690456627

$$$$
ZINC62861059
 OpenBabel10211214563D

 25 26  0  0  1  0  0  0  0  0999 V2000
   50.7720   53.1370   18.8850 C   0  0  0  0  0  0  0  0  0  0  0  0
   50.3290   51.8940   19.1610 N   0  0  0  0  0  0  0  0  0  0  0  0
   49.5830   51.7690   19.7680 H   0  0  0  0  0  0  0  0  0  0  0  0
   51.7490   53.2900   18.1830 O   0  0  0  0  0  0  0  0  0  0  0  0
   50.0520   54.3350   19.4470 C   0  0  2  0  0  0  0  0  0  0  0  0
   50.7420   55.6170   18.9710 C   0  0  0  0  0  0  0  0  0  0  0  0
   52.1710   55.6500   19.5200 C   0  0  0  0  0  0  0  0  0  0  0  0
   52.1280   55.5470   21.0470 C   0  0  0  0  0  0  0  0  0  0  0  0
   51.4810   54.2890   21.4370 N   0  0  0  0  0  0  0  0  0  0  0  0
   51.5020   54.1990   22.4420 H   0  0  0  0  0  0  0  0  0  0  0  0
   51.9760   53.5140   21.0220 H   0  0  0  0  0  0  0  0  0  0  0  0
   50.0880   54.2810   20.9760 C   0  0  0  0  0  0  0  0  0  0  0  0
   48.5980   54.3300   18.9700 C   0  0  0  0  0  0  0  0  0  0  0  0
   47.9450   53.5860   16.6760 C   0  0  0  0  0  0  0  0  0  0  0  0
   48.5460   54.7300   17.4940 C   0  0  0  0  0  0  0  0  0  0  0  0
   50.9750   50.7320   18.5450 C   0  0  2  0  0  0  0  0  0  0  0  0
   50.2950   50.4200   17.2100 C   0  0  0  0  0  0  0  0  0  0  0  0
   48.8160   50.1130   17.4500 C   0  0  0  0  0  0  0  0  0  0  0  0
   48.6900   48.9060   18.3810 C   0  0  2  0  0  0  0  0  0  0  0  0
   47.2110   48.5990   18.6210 C   0  0  0  0  0  0  0  0  0  0  0  0
   49.3700   49.2180   19.7160 C   0  0  0  0  0  0  0  0  0  0  0  0
   50.8490   49.5250   19.4760 C   0  0  0  0  0  0  0  0  0  0  0  0
   52.4550   51.0390   18.3040 C   0  0  0  0  0  0  0  0  0  0  0  0
   52.7800   50.7740   16.9370 O   0  0  0  0  0  0  0  0  0  0  0  0
   52.3430   51.3650   16.3080 H   0  0  0  0  0  0  0  0  0  0  0  0
  1  2  1  0  0  0  0
  2  3  1  0  0  0  0
  4  1  2  0  0  0  0
  5  1  1  6  0  0  0
  5 12  1  0  0  0  0
  6  5  1  0  0  0  0
  6  7  1  0  0  0  0
  7  8  1  0  0  0  0
  8  9  1  0  0  0  0
  9 10  1  0  0  0  0
 11  9  1  0  0  0  0
 12  9  1  0  0  0  0
 13  5  1  0  0  0  0
 14 15  1  0  0  0  0
 15 13  1  0  0  0  0
 16 23  1  6  0  0  0
 16  2  1  0  0  0  0
 16 22  1  0  0  0  0
 17 18  1  0  0  0  0
 17 16  1  0  0  0  0
 18 19  1  0  0  0  0
 19 20  1  1  0  0  0
 19 21  1  0  0  0  0
 22 21  1  0  0  0  0
 24 23  1  0  0  0  0
 25 24  1  0  0  0  0
M  END
>  <MODEL>
2

>  <REMARK>
  Name = ZINC62861059
                            x       y       z     vdW  Elec       q    Type
                         _______ _______ _______ _____ _____    ______ ____

>  <TORSDO>
F 6

>  <minimizedAffinity>
-6.5314715874484675

$$$$
ZINC62861059
 OpenBabel10211214563D

 25 26  0  0  1  0  0  0  0  0999 V2000
   49.8230   55.9070   19.8200 C   0  0  0  0  0  0  0  0  0  0  0  0
   50.1630   55.0770   20.8270 N   0  0  0  0  0  0  0  0  0  0  0  0
   49.4720   54.6410   21.3500 H   0  0  0  0  0  0  0  0  0  0  0  0
   50.6840   56.5080   19.2140 O   0  0  0  0  0  0  0  0  0  0  0  0
   48.3740   56.0860   19.4490 C   0  0  2  0  0  0  0  0  0  0  0  0
   47.7060   54.7140   19.3130 C   0  0  0  0  0  0  0  0  0  0  0  0
   48.3730   53.9440   18.1700 C   0  0  0  0  0  0  0  0  0  0  0  0
   48.2760   54.7660   16.8820 C   0  0  0  0  0  0  0  0  0  0  0  0
   48.9550   56.0540   17.0690 N   0  0  0  0  0  0  0  0  0  0  0  0
   48.9360   56.5710   16.2020 H   0  0  0  0  0  0  0  0  0  0  0  0
   49.9130   55.8920   17.3400 H   0  0  0  0  0  0  0  0  0  0  0  0
   48.2770   56.8290   18.1140 C   0  0  0  0  0  0  0  0  0  0  0  0
   47.6630   56.8940   20.5360 C   0  0  0  0  0  0  0  0  0  0  0  0
   48.9250   58.4260   22.0530 C   0  0  0  0  0  0  0  0  0  0  0  0
   48.3180   58.2720   20.6580 C   0  0  0  0  0  0  0  0  0  0  0  0
   51.5750   54.8350   21.1320 C   0  0  2  0  0  0  0  0  0  0  0  0
   52.2540   54.1910   19.9220 C   0  0  0  0  0  0  0  0  0  0  0  0
   51.5680   52.8630   19.5980 C   0  0  0  0  0  0  0  0  0  0  0  0
   51.6770   51.9260   20.8020 C   0  0  2  0  0  0  0  0  0  0  0  0
   50.9900   50.5980   20.4790 C   0  0  0  0  0  0  0  0  0  0  0  0
   50.9980   52.5700   22.0130 C   0  0  0  0  0  0  0  0  0  0  0  0
   51.6840   53.8980   22.3360 C   0  0  0  0  0  0  0  0  0  0  0  0
   52.2630   56.1640   21.4560 C   0  0  0  0  0  0  0  0  0  0  0  0
   52.4900   56.2510   22.8650 O   0  0  0  0  0  0  0  0  0  0  0  0
   52.7990   55.4260   23.2640 H   0  0  0  0  0  0  0  0  0  0  0  0
  1  2  1  0  0  0  0
  2  3  1  0  0  0  0
  4  1  2  0  0  0  0
  5  1  1  1  0  0  0
  5 13  1  0  0  0  0
  6  5  1  0  0  0  0
  7  6  1  0  0  0  0
  8  9  1  0  0  0  0
  8  7  1  0  0  0  0
  9 11  1  0  0  0  0
  9 12  1  0  0  0  0
 10  9  1  0  0  0  0
 12  5  1  0  0  0  0
 13 15  1  0  0  0  0
 15 14  1  0  0  0  0
 16  2  1  6  0  0  0
 16 23  1  0  0  0  0
 16 22  1  0  0  0  0
 17 16  1  0  0  0  0
 18 17  1  0  0  0  0
 18 19  1  0  0  0  0
 19 20  1  6  0  0  0
 19 21  1  0  0  0  0
 21 22  1  0  0  0  0
 23 24  1  0  0  0  0
 24 25  1  0  0  0  0
M  END
>  <MODEL>
3

>  <REMARK>
  Name = ZINC62861059
                            x       y       z     vdW  Elec       q    Type
                         _______ _______ _______ _____ _____    ______ ____

>  <TORSDO>
F 6

>  <minimizedAffinity>
-6.4283401574564927

$$$$
ZINC62861059
 OpenBabel10211214563D

 25 26  0  0  1  0  0  0  0  0999 V2000
   50.5410   52.8380   19.0450 C   0  0  0  0  0  0  0  0  0  0  0  0
   49.8690   51.6720   18.9590 N   0  0  0  0  0  0  0  0  0  0  0  0
   49.2010   51.4480   19.6260 H   0  0  0  0  0  0  0  0  0  0  0  0
   51.4270   53.0860   18.2550 O   0  0  0  0  0  0  0  0  0  0  0  0
   50.1920   53.8310   20.1230 C   0  0  2  0  0  0  0  0  0  0  0  0
   48.7560   54.3240   19.9190 C   0  0  0  0  0  0  0  0  0  0  0  0
   48.6640   55.0600   18.5790 C   0  0  0  0  0  0  0  0  0  0  0  0
   49.6780   56.2060   18.5620 C   0  0  0  0  0  0  0  0  0  0  0  0
   51.0330   55.6680   18.7350 N   0  0  0  0  0  0  0  0  0  0  0  0
   51.7020   56.4200   18.6700 H   0  0  0  0  0  0  0  0  0  0  0  0
   51.2190   54.9910   18.0110 H   0  0  0  0  0  0  0  0  0  0  0  0
   51.1490   55.0230   20.0480 C   0  0  0  0  0  0  0  0  0  0  0  0
   50.3130   53.1630   21.4940 C   0  0  0  0  0  0  0  0  0  0  0  0
   52.1060   51.4330   21.6710 C   0  0  0  0  0  0  0  0  0  0  0  0
   51.7900   52.9230   21.8140 C   0  0  0  0  0  0  0  0  0  0  0  0
   50.1490   50.7450   17.8610 C   0  0  2  0  0  0  0  0  0  0  0  0
   49.4420   51.2290   16.5930 C   0  0  0  0  0  0  0  0  0  0  0  0
   47.9340   51.2880   16.8400 C   0  0  0  0  0  0  0  0  0  0  0  0
   47.4230   49.8940   17.2060 C   0  0  2  0  0  0  0  0  0  0  0  0
   45.9140   49.9520   17.4530 C   0  0  0  0  0  0  0  0  0  0  0  0
   48.1290   49.4090   18.4740 C   0  0  0  0  0  0  0  0  0  0  0  0
   49.6370   49.3500   18.2270 C   0  0  0  0  0  0  0  0  0  0  0  0
   51.6580   50.6860   17.6130 C   0  0  0  0  0  0  0  0  0  0  0  0
   51.9070   50.6130   16.2070 O   0  0  0  0  0  0  0  0  0  0  0  0
   52.7960   50.3050   15.9810 H   0  0  0  0  0  0  0  0  0  0  0  0
  2  1  1  0  0  0  0
  2  3  1  0  0  0  0
  4  1  2  0  0  0  0
  5  1  1  6  0  0  0
  5 13  1  0  0  0  0
  6  5  1  0  0  0  0
  7  6  1  0  0  0  0
  8  7  1  0  0  0  0
  8  9  1  0  0  0  0
  9 12  1  0  0  0  0
 10  9  1  0  0  0  0
 11  9  1  0  0  0  0
 12  5  1  0  0  0  0
 13 15  1  0  0  0  0
 14 15  1  0  0  0  0
 16 23  1  6  0  0  0
 16 22  1  0  0  0  0
 16  2  1  0  0  0  0
 17 18  1  0  0  0  0
 17 16  1  0  0  0  0
 18 19  1  0  0  0  0
 19 20  1  1  0  0  0
 19 21  1  0  0  0  0
 22 21  1  0  0  0  0
 24 23  1  0  0  0  0
 25 24  1  0  0  0  0
M  END
>  <MODEL>
4

>  <REMARK>
  Name = ZINC62861059
                            x       y       z     vdW  Elec       q    Type
                         _______ _______ _______ _____ _____    ______ ____

>  <TORSDO>
F 6

>  <minimizedAffinity>
-6.2972988953932303

$$$$
ZINC62861059
 OpenBabel10211214563D

 25 26  0  0  1  0  0  0  0  0999 V2000
   51.1490   50.7260   17.6450 C   0  0  0  0  0  0  0  0  0  0  0  0
   49.9540   50.1370   17.4370 N   0  0  0  0  0  0  0  0  0  0  0  0
   49.3920   49.9020   18.1920 H   0  0  0  0  0  0  0  0  0  0  0  0
   51.8830   50.9540   16.7070 O   0  0  0  0  0  0  0  0  0  0  0  0
   51.5710   51.1010   19.0420 C   0  0  2  0  0  0  0  0  0  0  0  0
   50.4250   51.8370   19.7430 C   0  0  0  0  0  0  0  0  0  0  0  0
   50.1340   53.1400   18.9950 C   0  0  0  0  0  0  0  0  0  0  0  0
   51.4100   53.9820   18.9310 C   0  0  0  0  0  0  0  0  0  0  0  0
   52.4590   53.2350   18.2260 N   0  0  0  0  0  0  0  0  0  0  0  0
   53.2810   53.8130   18.1390 H   0  0  0  0  0  0  0  0  0  0  0  0
   52.1300   52.9810   17.3070 H   0  0  0  0  0  0  0  0  0  0  0  0
   52.7940   52.0190   18.9760 C   0  0  0  0  0  0  0  0  0  0  0  0
   51.9230   49.8360   19.8280 C   0  0  0  0  0  0  0  0  0  0  0  0
   50.0820   48.4080   20.7290 C   0  0  0  0  0  0  0  0  0  0  0  0
   50.9280   49.6580   20.9770 C   0  0  0  0  0  0  0  0  0  0  0  0
   49.5050   49.8510   16.0730 C   0  0  2  0  0  0  0  0  0  0  0  0
   48.4380   50.8680   15.6640 C   0  0  0  0  0  0  0  0  0  0  0  0
   47.2490   50.7720   16.6230 C   0  0  0  0  0  0  0  0  0  0  0  0
   46.6590   49.3620   16.5640 C   0  0  2  0  0  0  0  0  0  0  0  0
   45.4710   49.2660   17.5220 C   0  0  0  0  0  0  0  0  0  0  0  0
   47.7270   48.3450   16.9720 C   0  0  0  0  0  0  0  0  0  0  0  0
   48.9150   48.4410   16.0140 C   0  0  0  0  0  0  0  0  0  0  0  0
   50.6940   49.9470   15.1130 C   0  0  0  0  0  0  0  0  0  0  0  0
   51.0570   48.6360   14.6730 O   0  0  0  0  0  0  0  0  0  0  0  0
   51.9420   48.3600   14.9480 H   0  0  0  0  0  0  0  0  0  0  0  0
  2  1  1  0  0  0  0
  2  3  1  0  0  0  0
  4  1  2  0  0  0  0
  5  1  1  6  0  0  0
  5  6  1  0  0  0  0
  5 13  1  0  0  0  0
  7  6  1  0  0  0  0
  8  7  1  0  0  0  0
  9  8  1  0  0  0  0
  9 12  1  0  0  0  0
 10  9  1  0  0  0  0
 11  9  1  0  0  0  0
 12  5  1  0  0  0  0
 13 15  1  0  0  0  0
 14 15  1  0  0  0  0
 16 23  1  6  0  0  0
 16  2  1  0  0  0  0
 17 16  1  0  0  0  0
 17 18  1  0  0  0  0
 19 18  1  0  0  0  0
 19 21  1  0  0  0  0
 19 20  1  1  0  0  0
 22 16  1  0  0  0  0
 22 21  1  0  0  0  0
 24 25  1  0  0  0  0
 24 23  1  0  0  0  0
M  END
>  <MODEL>
5

>  <REMARK>
  Name = ZINC62861059
                            x       y       z     vdW  Elec       q    Type
                         _______ _______ _______ _____ _____    ______ ____

>  <TORSDO>
F 6

>  <minimizedAffinity>
-6.2390142275887737

$$$$
ZINC62861059
 OpenBabel10211214563D

 25 26  0  0  1  0  0  0  0  0999 V2000
   50.5680   53.6190   20.3390 C   0  0  0  0  0  0  0  0  0  0  0  0
   50.9840   52.8740   19.2950 N   0  0  0  0  0  0  0  0  0  0  0  0
   50.9770   53.2470   18.4000 H   0  0  0  0  0  0  0  0  0  0  0  0
   50.5090   53.1300   21.4470 O   0  0  0  0  0  0  0  0  0  0  0  0
   50.1790   55.0590   20.1290 C   0  0  2  0  0  0  0  0  0  0  0  0
   51.1290   55.7040   19.1140 C   0  0  0  0  0  0  0  0  0  0  0  0
   52.5490   55.7000   19.6850 C   0  0  0  0  0  0  0  0  0  0  0  0
   52.5550   56.4290   21.0310 C   0  0  0  0  0  0  0  0  0  0  0  0
   51.6480   55.7500   21.9640 N   0  0  0  0  0  0  0  0  0  0  0  0
   51.6960   56.2010   22.8650 H   0  0  0  0  0  0  0  0  0  0  0  0
   51.9270   54.7850   22.0590 H   0  0  0  0  0  0  0  0  0  0  0  0
   50.2730   55.8130   21.4570 C   0  0  0  0  0  0  0  0  0  0  0  0
   48.7440   55.1300   19.6010 C   0  0  0  0  0  0  0  0  0  0  0  0
   47.9250   57.4070   18.9820 C   0  0  0  0  0  0  0  0  0  0  0  0
   48.0710   56.4010   20.1240 C   0  0  0  0  0  0  0  0  0  0  0  0
   51.4450   51.5010   19.5130 C   0  0  2  0  0  0  0  0  0  0  0  0
   52.2110   51.0190   18.2790 C   0  0  0  0  0  0  0  0  0  0  0  0
   51.2890   51.0610   17.0580 C   0  0  0  0  0  0  0  0  0  0  0  0
   50.0850   50.1490   17.2980 C   0  0  2  0  0  0  0  0  0  0  0  0
   49.1630   50.1900   16.0780 C   0  0  0  0  0  0  0  0  0  0  0  0
   49.3190   50.6300   18.5320 C   0  0  0  0  0  0  0  0  0  0  0  0
   50.2400   50.5890   19.7520 C   0  0  0  0  0  0  0  0  0  0  0  0
   52.3670   51.4590   20.7340 C   0  0  0  0  0  0  0  0  0  0  0  0
   51.8200   50.5720   21.7130 O   0  0  0  0  0  0  0  0  0  0  0  0
   51.3180   49.8350   21.3380 H   0  0  0  0  0  0  0  0  0  0  0  0
  1  4  2  0  0  0  0
  2  1  1  0  0  0  0
  3  2  1  0  0  0  0
  5 13  1  6  0  0  0
  5  1  1  0  0  0  0
  5 12  1  0  0  0  0
  6  7  1  0  0  0  0
  6  5  1  0  0  0  0
  7  8  1  0  0  0  0
  8  9  1  0  0  0  0
  9 11  1  0  0  0  0
  9 10  1  0  0  0  0
 12  9  1  0  0  0  0
 13 15  1  0  0  0  0
 14 15  1  0  0  0  0
 16  2  1  6  0  0  0
 16 22  1  0  0  0  0
 16 23  1  0  0  0  0
 17 16  1  0  0  0  0
 18 19  1  0  0  0  0
 18 17  1  0  0  0  0
 19 20  1  6  0  0  0
 19 21  1  0  0  0  0
 21 22  1  0  0  0  0
 23 24  1  0  0  0  0
 25 24  1  0  0  0  0
M  END
>  <MODEL>
6

>  <REMARK>
  Name = ZINC62861059
                            x       y       z     vdW  Elec       q    Type
                         _______ _______ _______ _____ _____    ______ ____

>  <TORSDO>
F 6

>  <minimizedAffinity>
-6.2090262440936872

$$$$
ZINC62861059
 OpenBabel10211214563D

 25 26  0  0  1  0  0  0  0  0999 V2000
   46.2670   47.4510   15.8570 C   0  0  0  0  0  0  0  0  0  0  0  0
   45.1870   47.7170   15.0950 N   0  0  0  0  0  0  0  0  0  0  0  0
   44.7960   48.6050   15.1010 H   0  0  0  0  0  0  0  0  0  0  0  0
   46.7110   46.3230   15.9050 O   0  0  0  0  0  0  0  0  0  0  0  0
   46.9220   48.5540   16.6470 C   0  0  2  0  0  0  0  0  0  0  0  0
   47.1390   49.7710   15.7430 C   0  0  0  0  0  0  0  0  0  0  0  0
   48.1020   49.3920   14.6140 C   0  0  0  0  0  0  0  0  0  0  0  0
   49.4110   48.8770   15.2180 C   0  0  0  0  0  0  0  0  0  0  0  0
   49.1390   47.6980   16.0490 N   0  0  0  0  0  0  0  0  0  0  0  0
   50.0090   47.3290   16.4020 H   0  0  0  0  0  0  0  0  0  0  0  0
   48.6800   46.9940   15.4920 H   0  0  0  0  0  0  0  0  0  0  0  0
   48.2740   48.0700   17.1750 C   0  0  0  0  0  0  0  0  0  0  0  0
   46.0240   48.9450   17.8220 C   0  0  0  0  0  0  0  0  0  0  0  0
   44.8130   47.2400   19.1880 C   0  0  0  0  0  0  0  0  0  0  0  0
   46.1660   47.9070   18.9380 C   0  0  0  0  0  0  0  0  0  0  0  0
   44.6020   46.6650   14.2600 C   0  0  2  0  0  0  0  0  0  0  0  0
   45.4390   46.5000   12.9890 C   0  0  0  0  0  0  0  0  0  0  0  0
   45.4540   47.8180   12.2140 C   0  0  0  0  0  0  0  0  0  0  0  0
   44.0230   48.2030   11.8350 C   0  0  2  0  0  0  0  0  0  0  0  0
   44.0380   49.5220   11.0590 C   0  0  0  0  0  0  0  0  0  0  0  0
   43.1860   48.3690   13.1050 C   0  0  0  0  0  0  0  0  0  0  0  0
   43.1710   47.0510   13.8810 C   0  0  0  0  0  0  0  0  0  0  0  0
   44.5860   45.3460   15.0360 C   0  0  0  0  0  0  0  0  0  0  0  0
   43.7790   45.4920   16.2070 O   0  0  0  0  0  0  0  0  0  0  0  0
   43.0340   46.0990   16.0970 H   0  0  0  0  0  0  0  0  0  0  0  0
  1  4  2  0  0  0  0
  2  3  1  0  0  0  0
  2  1  1  0  0  0  0
  5  1  1  6  0  0  0
  5 12  1  0  0  0  0
  5 13  1  0  0  0  0
  6  5  1  0  0  0  0
  7  8  1  0  0  0  0
  7  6  1  0  0  0  0
  8  9  1  0  0  0  0
  9 10  1  0  0  0  0
  9 12  1  0  0  0  0
 11  9  1  0  0  0  0
 13 15  1  0  0  0  0
 15 14  1  0  0  0  0
 16 23  1  1  0  0  0
 16  2  1  0  0  0  0
 17 16  1  0  0  0  0
 18 17  1  0  0  0  0
 19 20  1  1  0  0  0
 19 18  1  0  0  0  0
 19 21  1  0  0  0  0
 21 22  1  0  0  0  0
 22 16  1  0  0  0  0
 23 24  1  0  0  0  0
 25 24  1  0  0  0  0
M  END
>  <MODEL>
7

>  <REMARK>
  Name = ZINC62861059
                            x       y       z     vdW  Elec       q    Type
                         _______ _______ _______ _____ _____    ______ ____

>  <TORSDO>
F 6

>  <minimizedAffinity>
-6.1994484231873264

$$$$
ZINC62861059
 OpenBabel10211214563D

 25 26  0  0  1  0  0  0  0  0999 V2000
   51.0210   54.6000   19.5830 C   0  0  0  0  0  0  0  0  0  0  0  0
   50.5190   55.3280   20.6010 N   0  0  0  0  0  0  0  0  0  0  0  0
   49.7800   54.9820   21.1260 H   0  0  0  0  0  0  0  0  0  0  0  0
   51.8950   55.0610   18.8820 O   0  0  0  0  0  0  0  0  0  0  0  0
   50.4940   53.2130   19.3180 C   0  0  2  0  0  0  0  0  0  0  0  0
   50.3690   52.4510   20.6420 C   0  0  0  0  0  0  0  0  0  0  0  0
   51.7590   52.2950   21.2640 C   0  0  0  0  0  0  0  0  0  0  0  0
   52.6800   51.5830   20.2700 C   0  0  0  0  0  0  0  0  0  0  0  0
   52.7790   52.3740   19.0370 N   0  0  0  0  0  0  0  0  0  0  0  0
   53.4280   51.9290   18.4060 H   0  0  0  0  0  0  0  0  0  0  0  0
   53.1100   53.3000   19.2580 H   0  0  0  0  0  0  0  0  0  0  0  0
   51.4620   52.4670   18.3970 C   0  0  0  0  0  0  0  0  0  0  0  0
   49.1210   53.3050   18.6500 C   0  0  0  0  0  0  0  0  0  0  0  0
   47.8920   52.7920   16.5370 C   0  0  0  0  0  0  0  0  0  0  0  0
   49.1050   52.4300   17.3950 C   0  0  0  0  0  0  0  0  0  0  0  0
   51.0890   56.6400   20.9130 C   0  0  2  0  0  0  0  0  0  0  0  0
   50.3430   57.2500   22.1020 C   0  0  0  0  0  0  0  0  0  0  0  0
   48.8630   57.4080   21.7490 C   0  0  0  0  0  0  0  0  0  0  0  0
   48.7240   58.3270   20.5350 C   0  0  2  0  0  0  0  0  0  0  0  0
   47.2440   58.4850   20.1820 C   0  0  0  0  0  0  0  0  0  0  0  0
   49.4700   57.7180   19.3460 C   0  0  0  0  0  0  0  0  0  0  0  0
   50.9500   57.5600   19.6990 C   0  0  0  0  0  0  0  0  0  0  0  0
   52.5700   56.4830   21.2670 C   0  0  0  0  0  0  0  0  0  0  0  0
   52.7160   56.4180   22.6870 O   0  0  0  0  0  0  0  0  0  0  0  0
   53.5790   56.0910   22.9790 H   0  0  0  0  0  0  0  0  0  0  0  0
  1  2  1  0  0  0  0
  2  3  1  0  0  0  0
  4  1  2  0  0  0  0
  5 13  1  6  0  0  0
  5  1  1  0  0  0  0
  5  6  1  0  0  0  0
  6  7  1  0  0  0  0
  8  7  1  0  0  0  0
  9 11  1  0  0  0  0
  9  8  1  0  0  0  0
 10  9  1  0  0  0  0
 12  9  1  0  0  0  0
 12  5  1  0  0  0  0
 14 15  1  0  0  0  0
 15 13  1  0  0  0  0
 16  2  1  6  0  0  0
 16 23  1  0  0  0  0
 16 17  1  0  0  0  0
 18 17  1  0  0  0  0
 19 20  1  6  0  0  0
 19 18  1  0  0  0  0
 21 22  1  0  0  0  0
 21 19  1  0  0  0  0
 22 16  1  0  0  0  0
 23 24  1  0  0  0  0
 24 25  1  0  0  0  0
M  END
>  <MODEL>
8

>  <REMARK>
  Name = ZINC62861059
                            x       y       z     vdW  Elec       q    Type
                         _______ _______ _______ _____ _____    ______ ____

>  <TORSDO>
F 6

>  <minimizedAffinity>
-5.8105395891874512

$$$$
ZINC62861059
 OpenBabel10211214563D

 25 26  0  0  1  0  0  0  0  0999 V2000
   50.0950   51.4290   17.8710 C   0  0  0  0  0  0  0  0  0  0  0  0
   48.8480   50.9990   17.5880 N   0  0  0  0  0  0  0  0  0  0  0  0
   48.0910   51.3500   18.0820 H   0  0  0  0  0  0  0  0  0  0  0  0
   51.0480   50.9380   17.3040 O   0  0  0  0  0  0  0  0  0  0  0  0
   50.3020   52.5180   18.8910 C   0  0  2  0  0  0  0  0  0  0  0  0
   51.6380   53.2200   18.6260 C   0  0  0  0  0  0  0  0  0  0  0  0
   52.7770   52.2120   18.8030 C   0  0  0  0  0  0  0  0  0  0  0  0
   52.7070   51.6110   20.2090 C   0  0  0  0  0  0  0  0  0  0  0  0
   51.4180   50.9330   20.3910 N   0  0  0  0  0  0  0  0  0  0  0  0
   51.3960   50.4920   21.2980 H   0  0  0  0  0  0  0  0  0  0  0  0
   51.3050   50.2300   19.6760 H   0  0  0  0  0  0  0  0  0  0  0  0
   50.3240   51.9060   20.2940 C   0  0  0  0  0  0  0  0  0  0  0  0
   49.1630   53.5340   18.7950 C   0  0  0  0  0  0  0  0  0  0  0  0
   48.2220   55.6390   19.7570 C   0  0  0  0  0  0  0  0  0  0  0  0
   49.3740   54.6360   19.8360 C   0  0  0  0  0  0  0  0  0  0  0  0
   48.6380   50.0030   16.5350 C   0  0  2  0  0  0  0  0  0  0  0  0
   47.1580   49.9790   16.1450 C   0  0  0  0  0  0  0  0  0  0  0  0
   46.3140   49.6150   17.3680 C   0  0  0  0  0  0  0  0  0  0  0  0
   46.7280   48.2340   17.8800 C   0  0  2  0  0  0  0  0  0  0  0  0
   45.8840   47.8700   19.1030 C   0  0  0  0  0  0  0  0  0  0  0  0
   48.2080   48.2580   18.2710 C   0  0  0  0  0  0  0  0  0  0  0  0
   49.0520   48.6230   17.0480 C   0  0  0  0  0  0  0  0  0  0  0  0
   49.4820   50.3670   15.3120 C   0  0  0  0  0  0  0  0  0  0  0  0
   50.3940   49.3020   15.0290 O   0  0  0  0  0  0  0  0  0  0  0  0
   50.3390   48.5630   15.6500 H   0  0  0  0  0  0  0  0  0  0  0  0
  2  1  1  0  0  0  0
  2  3  1  0  0  0  0
  4  1  2  0  0  0  0
  5  1  1  6  0  0  0
  5 12  1  0  0  0  0
  6  7  1  0  0  0  0
  6  5  1  0  0  0  0
  7  8  1  0  0  0  0
  8  9  1  0  0  0  0
  9 10  1  0  0  0  0
 11  9  1  0  0  0  0
 12  9  1  0  0  0  0
 13  5  1  0  0  0  0
 13 15  1  0  0  0  0
 14 15  1  0  0  0  0
 16 23  1  6  0  0  0
 16 22  1  0  0  0  0
 16  2  1  0  0  0  0
 17 16  1  0  0  0  0
 17 18  1  0  0  0  0
 18 19  1  0  0  0  0
 19 21  1  0  0  0  0
 19 20  1  1  0  0  0
 22 21  1  0  0  0  0
 24 23  1  0  0  0  0
 24 25  1  0  0  0  0
M  END
>  <MODEL>
9

>  <REMARK>
  Name = ZINC62861059
                            x       y       z     vdW  Elec       q    Type
                         _______ _______ _______ _____ _____    ______ ____

>  <TORSDO>
F 6

>  <minimizedAffinity>
-5.7809202060888207

$$$$
ZINC48045941
 OpenBabel10211214573D

 24 24  0  0  0  0  0  0  0  0999 V2000
   52.4010   50.5000   19.9650 C   0  0  0  0  0  0  0  0  0  0  0  0
   53.2350   49.6180   19.9930 O   0  0  0  0  0  0  0  0  0  0  0  0
   51.1170   50.2790   19.2750 C   0  0  0  0  0  0  0  0  0  0  0  0
   50.8020   51.0100   18.1260 C   0  0  0  0  0  0  0  0  0  0  0  0
   49.5940   50.7980   17.4850 C   0  0  0  0  0  0  0  0  0  0  0  0
   48.6950   49.8570   17.9830 C   0  0  0  0  0  0  0  0  0  0  0  0
   47.5180   49.6530   17.3540 F   0  0  0  0  0  0  0  0  0  0  0  0
   49.0050   49.1310   19.1190 C   0  0  0  0  0  0  0  0  0  0  0  0
   50.2110   49.3320   19.7650 C   0  0  0  0  0  0  0  0  0  0  0  0
   50.5130   48.6180   20.8720 F   0  0  0  0  0  0  0  0  0  0  0  0
   49.2760   51.5290   16.3340 N   0  0  0  0  0  0  0  0  0  0  0  0
   49.9150   52.1640   15.9710 H   0  0  0  0  0  0  0  0  0  0  0  0
   48.4200   51.4000   15.8980 H   0  0  0  0  0  0  0  0  0  0  0  0
   52.6490   51.6830   20.5620 O   0  0  0  0  0  0  0  0  0  0  0  0
   51.7760   52.0680   21.6250 C   0  0  0  0  0  0  0  0  0  0  0  0
   50.9340   54.0960   20.4850 N   0  0  0  0  0  0  0  0  0  0  0  0
   50.6550   53.5290   19.7500 H   0  0  0  0  0  0  0  0  0  0  0  0
   51.5370   53.5550   21.5630 C   0  0  0  0  0  0  0  0  0  0  0  0
   51.8850   54.2650   22.4830 O   0  0  0  0  0  0  0  0  0  0  0  0
   50.7010   55.5420   20.4250 C   0  0  0  0  0  0  0  0  0  0  0  0
   49.1960   55.8130   20.3810 C   0  0  0  0  0  0  0  0  0  0  0  0
   47.4360   57.5790   20.5590 C   0  0  0  0  0  0  0  0  0  0  0  0
   48.9430   57.3120   20.5520 C   0  0  0  0  0  0  0  0  0  0  0  0
   49.5500   57.7830   21.8760 C   0  0  0  0  0  0  0  0  0  0  0  0
  1  2  2  0  0  0  0
  1 14  1  0  0  0  0
  3  9  1  0  0  0  0
  3  1  1  0  0  0  0
  4  3  2  0  0  0  0
  5  6  2  0  0  0  0
  5  4  1  0  0  0  0
  6  8  1  0  0  0  0
  7  6  1  0  0  0  0
  8  9  2  0  0  0  0
  9 10  1  0  0  0  0
 11  5  1  0  0  0  0
 12 11  1  0  0  0  0
 13 11  1  0  0  0  0
 14 15  1  0  0  0  0
 16 18  1  0  0  0  0
 17 16  1  0  0  0  0
 18 15  1  0  0  0  0
 18 19  2  0  0  0  0
 20 16  1  0  0  0  0
 21 20  1  0  0  0  0
 21 23  1  0  0  0  0
 23 22  1  0  0  0  0
 23 24  1  0  0  0  0
M  END
>  <MODEL>
1

>  <REMARK>
  Name = ZINC48045941
                            x       y       z     vdW  Elec       q    Type
                         _______ _______ _______ _____ _____    ______ ____

>  <TORSDO>
F 8

>  <minimizedAffinity>
-7.5312836044494826

$$$$
ZINC48045941
 OpenBabel10211214573D

 24 24  0  0  0  0  0  0  0  0999 V2000
   51.7740   54.5750   20.5450 C   0  0  0  0  0  0  0  0  0  0  0  0
   52.4290   54.5540   19.5210 O   0  0  0  0  0  0  0  0  0  0  0  0
   50.5710   55.4220   20.6330 C   0  0  0  0  0  0  0  0  0  0  0  0
   50.5590   56.5390   21.4740 C   0  0  0  0  0  0  0  0  0  0  0  0
   49.4260   57.3290   21.5520 C   0  0  0  0  0  0  0  0  0  0  0  0
   48.3000   57.0120   20.7960 C   0  0  0  0  0  0  0  0  0  0  0  0
   47.1960   57.7850   20.8750 F   0  0  0  0  0  0  0  0  0  0  0  0
   48.3090   55.9070   19.9620 C   0  0  0  0  0  0  0  0  0  0  0  0
   49.4380   55.1140   19.8720 C   0  0  0  0  0  0  0  0  0  0  0  0
   49.4460   54.0390   19.0540 F   0  0  0  0  0  0  0  0  0  0  0  0
   49.4120   58.4490   22.3930 N   0  0  0  0  0  0  0  0  0  0  0  0
   48.7220   59.1230   22.2900 H   0  0  0  0  0  0  0  0  0  0  0  0
   50.0910   58.5500   23.0780 H   0  0  0  0  0  0  0  0  0  0  0  0
   52.1490   53.8250   21.6000 O   0  0  0  0  0  0  0  0  0  0  0  0
   51.3010   52.7310   21.9520 C   0  0  0  0  0  0  0  0  0  0  0  0
   50.6390   50.9850   20.3300 N   0  0  0  0  0  0  0  0  0  0  0  0
   49.7360   51.3380   20.3640 H   0  0  0  0  0  0  0  0  0  0  0  0
   51.6140   51.5500   21.0700 C   0  0  0  0  0  0  0  0  0  0  0  0
   52.7420   51.1070   21.0250 O   0  0  0  0  0  0  0  0  0  0  0  0
   50.9430   49.8370   19.4710 C   0  0  0  0  0  0  0  0  0  0  0  0
   49.7260   48.9110   19.4090 C   0  0  0  0  0  0  0  0  0  0  0  0
   49.1590   49.7810   17.1360 C   0  0  0  0  0  0  0  0  0  0  0  0
   48.6350   49.5610   18.5560 C   0  0  0  0  0  0  0  0  0  0  0  0
   47.4090   48.6460   18.5130 C   0  0  0  0  0  0  0  0  0  0  0  0
  1  3  1  0  0  0  0
  1 14  1  0  0  0  0
  2  1  2  0  0  0  0
  3  4  2  0  0  0  0
  4  5  1  0  0  0  0
  5 11  1  0  0  0  0
  6  7  1  0  0  0  0
  6  5  2  0  0  0  0
  8  6  1  0  0  0  0
  9  8  2  0  0  0  0
  9  3  1  0  0  0  0
 10  9  1  0  0  0  0
 11 13  1  0  0  0  0
 12 11  1  0  0  0  0
 14 15  1  0  0  0  0
 16 17  1  0  0  0  0
 16 18  1  0  0  0  0
 18 15  1  0  0  0  0
 19 18  2  0  0  0  0
 20 16  1  0  0  0  0
 21 20  1  0  0  0  0
 22 23  1  0  0  0  0
 23 21  1  0  0  0  0
 24 23  1  0  0  0  0
M  END
>  <MODEL>
2

>  <REMARK>
  Name = ZINC48045941
                            x       y       z     vdW  Elec       q    Type
                         _______ _______ _______ _____ _____    ______ ____

>  <TORSDO>
F 8

>  <minimizedAffinity>
-7.4920890346112232

$$$$
ZINC48045941
 OpenBabel10211214573D

 24 24  0  0  0  0  0  0  0  0999 V2000
   50.9040   53.4910   19.3360 C   0  0  0  0  0  0  0  0  0  0  0  0
   51.7380   53.6410   18.4650 O   0  0  0  0  0  0  0  0  0  0  0  0
   50.2810   54.6670   19.9700 C   0  0  0  0  0  0  0  0  0  0  0  0
   50.9700   55.3800   20.9560 C   0  0  0  0  0  0  0  0  0  0  0  0
   50.3790   56.4820   21.5480 C   0  0  0  0  0  0  0  0  0  0  0  0
   49.1000   56.8800   21.1620 C   0  0  0  0  0  0  0  0  0  0  0  0
   48.5260   57.9550   21.7420 F   0  0  0  0  0  0  0  0  0  0  0  0
   48.4170   56.1760   20.1860 C   0  0  0  0  0  0  0  0  0  0  0  0
   49.0000   55.0760   19.5840 C   0  0  0  0  0  0  0  0  0  0  0  0
   48.3320   54.3950   18.6280 F   0  0  0  0  0  0  0  0  0  0  0  0
   51.0660   57.1980   22.5340 N   0  0  0  0  0  0  0  0  0  0  0  0
   50.7130   58.0430   22.8550 H   0  0  0  0  0  0  0  0  0  0  0  0
   51.8950   56.8500   22.8990 H   0  0  0  0  0  0  0  0  0  0  0  0
   50.5500   52.2500   19.7230 O   0  0  0  0  0  0  0  0  0  0  0  0
   51.1530   51.1570   19.0280 C   0  0  0  0  0  0  0  0  0  0  0  0
   49.7100   49.1980   18.5830 N   0  0  0  0  0  0  0  0  0  0  0  0
   50.1000   48.7720   19.3630 H   0  0  0  0  0  0  0  0  0  0  0  0
   50.1050   50.4350   18.2220 C   0  0  0  0  0  0  0  0  0  0  0  0
   49.6150   50.9670   17.2470 O   0  0  0  0  0  0  0  0  0  0  0  0
   48.6900   48.4960   17.7990 C   0  0  0  0  0  0  0  0  0  0  0  0
   47.3330   48.6240   18.4970 C   0  0  0  0  0  0  0  0  0  0  0  0
   46.8340   49.1720   16.1110 C   0  0  0  0  0  0  0  0  0  0  0  0
   46.3370   49.2990   17.5530 C   0  0  0  0  0  0  0  0  0  0  0  0
   44.9710   48.6210   17.6840 C   0  0  0  0  0  0  0  0  0  0  0  0
  1 14  1  0  0  0  0
  1  3  1  0  0  0  0
  2  1  2  0  0  0  0
  3  4  1  0  0  0  0
  4  5  2  0  0  0  0
  5 11  1  0  0  0  0
  6  5  1  0  0  0  0
  6  7  1  0  0  0  0
  8  6  2  0  0  0  0
  9  3  2  0  0  0  0
  9  8  1  0  0  0  0
 10  9  1  0  0  0  0
 11 12  1  0  0  0  0
 11 13  1  0  0  0  0
 15 14  1  0  0  0  0
 16 17  1  0  0  0  0
 18 16  1  0  0  0  0
 18 15  1  0  0  0  0
 19 18  2  0  0  0  0
 20 21  1  0  0  0  0
 20 16  1  0  0  0  0
 22 23  1  0  0  0  0
 23 24  1  0  0  0  0
 23 21  1  0  0  0  0
M  END
>  <MODEL>
3

>  <REMARK>
  Name = ZINC48045941
                            x       y       z     vdW  Elec       q    Type
                         _______ _______ _______ _____ _____    ______ ____

>  <TORSDO>
F 8

>  <minimizedAffinity>
-7.3226176736329638

$$$$
ZINC48045941
 OpenBabel10211214573D

 24 24  0  0  0  0  0  0  0  0999 V2000
   51.2370   53.2490   20.9140 C   0  0  0  0  0  0  0  0  0  0  0  0
   50.8050   52.3020   21.5410 O   0  0  0  0  0  0  0  0  0  0  0  0
   50.4600   54.4990   20.8370 C   0  0  0  0  0  0  0  0  0  0  0  0
   50.8510   55.6160   21.5800 C   0  0  0  0  0  0  0  0  0  0  0  0
   50.1160   56.7860   21.5040 C   0  0  0  0  0  0  0  0  0  0  0  0
   48.9880   56.8490   20.6890 C   0  0  0  0  0  0  0  0  0  0  0  0
   48.2730   57.9920   20.6180 F   0  0  0  0  0  0  0  0  0  0  0  0
   48.5980   55.7450   19.9520 C   0  0  0  0  0  0  0  0  0  0  0  0
   49.3290   54.5720   20.0170 C   0  0  0  0  0  0  0  0  0  0  0  0
   48.9480   53.4980   19.2920 F   0  0  0  0  0  0  0  0  0  0  0  0
   50.5070   57.9060   22.2470 N   0  0  0  0  0  0  0  0  0  0  0  0
   50.6570   58.7550   21.8010 H   0  0  0  0  0  0  0  0  0  0  0  0
   50.6270   57.8350   23.2070 H   0  0  0  0  0  0  0  0  0  0  0  0
   52.4270   53.1550   20.2870 O   0  0  0  0  0  0  0  0  0  0  0  0
   52.4120   53.1940   18.8590 C   0  0  0  0  0  0  0  0  0  0  0  0
   50.7000   51.9250   17.6020 N   0  0  0  0  0  0  0  0  0  0  0  0
   50.2540   52.7670   17.4210 H   0  0  0  0  0  0  0  0  0  0  0  0
   51.8360   51.9060   18.3280 C   0  0  0  0  0  0  0  0  0  0  0  0
   52.3940   50.8530   18.5540 O   0  0  0  0  0  0  0  0  0  0  0  0
   50.1400   50.6730   17.0860 C   0  0  0  0  0  0  0  0  0  0  0  0
   48.7790   50.4170   17.7370 C   0  0  0  0  0  0  0  0  0  0  0  0
   49.6650   49.0240   19.6120 C   0  0  0  0  0  0  0  0  0  0  0  0
   48.7710   49.0240   18.3700 C   0  0  0  0  0  0  0  0  0  0  0  0
   47.3410   48.6540   18.7690 C   0  0  0  0  0  0  0  0  0  0  0  0
  1  2  2  0  0  0  0
  3  1  1  0  0  0  0
  3  4  2  0  0  0  0
  5  4  1  0  0  0  0
  5 11  1  0  0  0  0
  6  5  2  0  0  0  0
  7  6  1  0  0  0  0
  8  9  2  0  0  0  0
  8  6  1  0  0  0  0
  9  3  1  0  0  0  0
 10  9  1  0  0  0  0
 11 13  1  0  0  0  0
 12 11  1  0  0  0  0
 14  1  1  0  0  0  0
 15 14  1  0  0  0  0
 16 18  1  0  0  0  0
 17 16  1  0  0  0  0
 18 19  2  0  0  0  0
 18 15  1  0  0  0  0
 20 16  1  0  0  0  0
 20 21  1  0  0  0  0
 21 23  1  0  0  0  0
 23 24  1  0  0  0  0
 23 22  1  0  0  0  0
M  END
>  <MODEL>
4

>  <REMARK>
  Name = ZINC48045941
                            x       y       z     vdW  Elec       q    Type
                         _______ _______ _______ _____ _____    ______ ____

>  <TORSDO>
F 8

>  <minimizedAffinity>
-7.2113129393692876

$$$$
ZINC48045941
 OpenBabel10211214573D

 24 24  0  0  0  0  0  0  0  0999 V2000
   50.7830   54.4040   19.3870 C   0  0  0  0  0  0  0  0  0  0  0  0
   51.7960   54.5490   18.7320 O   0  0  0  0  0  0  0  0  0  0  0  0
   50.2670   55.5170   20.2020 C   0  0  0  0  0  0  0  0  0  0  0  0
   49.0070   56.0600   19.9330 C   0  0  0  0  0  0  0  0  0  0  0  0
   48.5280   57.1060   20.7020 C   0  0  0  0  0  0  0  0  0  0  0  0
   49.3020   57.6180   21.7420 C   0  0  0  0  0  0  0  0  0  0  0  0
   48.8320   58.6380   22.4910 F   0  0  0  0  0  0  0  0  0  0  0  0
   50.5490   57.0820   22.0110 C   0  0  0  0  0  0  0  0  0  0  0  0
   51.0340   56.0330   21.2520 C   0  0  0  0  0  0  0  0  0  0  0  0
   52.2500   55.5100   21.5210 F   0  0  0  0  0  0  0  0  0  0  0  0
   47.2670   57.6500   20.4350 N   0  0  0  0  0  0  0  0  0  0  0  0
   46.9990   58.4830   20.8550 H   0  0  0  0  0  0  0  0  0  0  0  0
   46.6600   57.1950   19.8300 H   0  0  0  0  0  0  0  0  0  0  0  0
   50.1320   53.2240   19.3680 O   0  0  0  0  0  0  0  0  0  0  0  0
   49.5940   52.8000   18.1140 C   0  0  0  0  0  0  0  0  0  0  0  0
   48.3750   50.6800   17.7410 N   0  0  0  0  0  0  0  0  0  0  0  0
   47.5910   51.2060   17.5180 H   0  0  0  0  0  0  0  0  0  0  0  0
   49.5250   51.2940   18.0810 C   0  0  0  0  0  0  0  0  0  0  0  0
   50.5050   50.6350   18.3600 O   0  0  0  0  0  0  0  0  0  0  0  0
   48.3080   49.2160   17.7090 C   0  0  0  0  0  0  0  0  0  0  0  0
   47.3260   48.7270   18.7760 C   0  0  0  0  0  0  0  0  0  0  0  0
   45.2670   47.3590   19.1430 C   0  0  0  0  0  0  0  0  0  0  0  0
   46.1120   48.0900   18.0970 C   0  0  0  0  0  0  0  0  0  0  0  0
   45.2700   49.1800   17.4310 C   0  0  0  0  0  0  0  0  0  0  0  0
  1  3  1  0  0  0  0
  2  1  2  0  0  0  0
  3  9  1  0  0  0  0
  4  3  2  0  0  0  0
  4  5  1  0  0  0  0
  5  6  2  0  0  0  0
  6  8  1  0  0  0  0
  6  7  1  0  0  0  0
  9 10  1  0  0  0  0
  9  8  2  0  0  0  0
 11  5  1  0  0  0  0
 11 12  1  0  0  0  0
 13 11  1  0  0  0  0
 14  1  1  0  0  0  0
 15 14  1  0  0  0  0
 16 18  1  0  0  0  0
 17 16  1  0  0  0  0
 18 15  1  0  0  0  0
 18 19  2  0  0  0  0
 20 16  1  0  0  0  0
 20 21  1  0  0  0  0
 23 21  1  0  0  0  0
 23 22  1  0  0  0  0
 24 23  1  0  0  0  0
M  END
>  <MODEL>
5

>  <REMARK>
  Name = ZINC48045941
                            x       y       z     vdW  Elec       q    Type
                         _______ _______ _______ _____ _____    ______ ____

>  <TORSDO>
F 8

>  <minimizedAffinity>
-7.1300124104607105

$$$$
ZINC48045941
 OpenBabel10211214573D

 24 24  0  0  0  0  0  0  0  0999 V2000
   52.4380   52.8010   19.2820 C   0  0  0  0  0  0  0  0  0  0  0  0
   52.9030   52.9190   18.1650 O   0  0  0  0  0  0  0  0  0  0  0  0
   51.4630   53.7870   19.7820 C   0  0  0  0  0  0  0  0  0  0  0  0
   51.8730   54.8030   20.6500 C   0  0  0  0  0  0  0  0  0  0  0  0
   50.9520   55.7240   21.1160 C   0  0  0  0  0  0  0  0  0  0  0  0
   49.6180   55.6380   20.7220 C   0  0  0  0  0  0  0  0  0  0  0  0
   48.7220   56.5380   21.1790 F   0  0  0  0  0  0  0  0  0  0  0  0
   49.2090   54.6340   19.8620 C   0  0  0  0  0  0  0  0  0  0  0  0
   50.1230   53.7110   19.3860 C   0  0  0  0  0  0  0  0  0  0  0  0
   49.7210   52.7350   18.5430 F   0  0  0  0  0  0  0  0  0  0  0  0
   51.3610   56.7420   21.9850 N   0  0  0  0  0  0  0  0  0  0  0  0
   51.1070   57.6620   21.8060 H   0  0  0  0  0  0  0  0  0  0  0  0
   51.8960   56.5300   22.7650 H   0  0  0  0  0  0  0  0  0  0  0  0
   52.8160   51.7700   20.0630 O   0  0  0  0  0  0  0  0  0  0  0  0
   52.6680   50.4570   19.5210 C   0  0  0  0  0  0  0  0  0  0  0  0
   50.5170   49.5110   18.7480 N   0  0  0  0  0  0  0  0  0  0  0  0
   50.8800   49.4990   17.8490 H   0  0  0  0  0  0  0  0  0  0  0  0
   51.2650   49.9650   19.7720 C   0  0  0  0  0  0  0  0  0  0  0  0
   50.8100   49.9780   20.8970 O   0  0  0  0  0  0  0  0  0  0  0  0
   49.1530   49.0320   18.9930 C   0  0  0  0  0  0  0  0  0  0  0  0
   48.6530   48.2670   17.7650 C   0  0  0  0  0  0  0  0  0  0  0  0
   46.3510   48.1760   18.7310 C   0  0  0  0  0  0  0  0  0  0  0  0
   47.1820   48.6040   17.5190 C   0  0  0  0  0  0  0  0  0  0  0  0
   47.0330   50.1120   17.3060 C   0  0  0  0  0  0  0  0  0  0  0  0
  1  3  1  0  0  0  0
  1 14  1  0  0  0  0
  2  1  2  0  0  0  0
  3  4  1  0  0  0  0
  4  5  2  0  0  0  0
  5 11  1  0  0  0  0
  6  5  1  0  0  0  0
  6  7  1  0  0  0  0
  8  6  2  0  0  0  0
  9  3  2  0  0  0  0
  9  8  1  0  0  0  0
 10  9  1  0  0  0  0
 11 13  1  0  0  0  0
 12 11  1  0  0  0  0
 15 18  1  0  0  0  0
 15 14  1  0  0  0  0
 16 20  1  0  0  0  0
 16 18  1  0  0  0  0
 17 16  1  0  0  0  0
 18 19  2  0  0  0  0
 21 20  1  0  0  0  0
 23 21  1  0  0  0  0
 23 22  1  0  0  0  0
 24 23  1  0  0  0  0
M  END
>  <MODEL>
6

>  <REMARK>
  Name = ZINC48045941
                            x       y       z     vdW  Elec       q    Type
                         _______ _______ _______ _____ _____    ______ ____

>  <TORSDO>
F 8

>  <minimizedAffinity>
-7.1206419019294769

$$$$
ZINC48045941
 OpenBabel10211214573D

 24 24  0  0  0  0  0  0  0  0999 V2000
   48.2610   50.1070   17.3070 C   0  0  0  0  0  0  0  0  0  0  0  0
   49.3360   49.5480   17.3920 O   0  0  0  0  0  0  0  0  0  0  0  0
   47.0670   49.3490   16.8900 C   0  0  0  0  0  0  0  0  0  0  0  0
   46.1020   48.9840   17.8330 C   0  0  0  0  0  0  0  0  0  0  0  0
   44.9850   48.2720   17.4350 C   0  0  0  0  0  0  0  0  0  0  0  0
   44.8230   47.9180   16.0970 C   0  0  0  0  0  0  0  0  0  0  0  0
   43.7320   47.2220   15.7120 F   0  0  0  0  0  0  0  0  0  0  0  0
   45.7770   48.2780   15.1610 C   0  0  0  0  0  0  0  0  0  0  0  0
   46.8950   48.9950   15.5470 C   0  0  0  0  0  0  0  0  0  0  0  0
   47.8220   49.3480   14.6300 F   0  0  0  0  0  0  0  0  0  0  0  0
   44.0160   47.9070   18.3770 N   0  0  0  0  0  0  0  0  0  0  0  0
   44.1960   48.0160   19.3250 H   0  0  0  0  0  0  0  0  0  0  0  0
   43.1650   47.5460   18.0840 H   0  0  0  0  0  0  0  0  0  0  0  0
   48.1590   51.4200   17.5930 O   0  0  0  0  0  0  0  0  0  0  0  0
   47.8130   52.2930   16.5160 C   0  0  0  0  0  0  0  0  0  0  0  0
   48.6160   53.9890   18.1280 N   0  0  0  0  0  0  0  0  0  0  0  0
   48.7410   53.2740   18.7710 H   0  0  0  0  0  0  0  0  0  0  0  0
   48.1450   53.7130   16.8960 C   0  0  0  0  0  0  0  0  0  0  0  0
   47.9900   54.6090   16.0920 O   0  0  0  0  0  0  0  0  0  0  0  0
   48.9400   55.3700   18.4970 C   0  0  0  0  0  0  0  0  0  0  0  0
   48.4500   55.6450   19.9200 C   0  0  0  0  0  0  0  0  0  0  0  0
   47.4380   57.8310   20.5840 C   0  0  0  0  0  0  0  0  0  0  0  0
   48.7490   57.1000   20.2890 C   0  0  0  0  0  0  0  0  0  0  0  0
   49.6450   57.1370   21.5300 C   0  0  0  0  0  0  0  0  0  0  0  0
  1  2  2  0  0  0  0
  1 14  1  0  0  0  0
  3  1  1  0  0  0  0
  3  4  2  0  0  0  0
  5  4  1  0  0  0  0
  5 11  1  0  0  0  0
  6  5  2  0  0  0  0
  7  6  1  0  0  0  0
  8  9  2  0  0  0  0
  8  6  1  0  0  0  0
  9  3  1  0  0  0  0
 10  9  1  0  0  0  0
 11 12  1  0  0  0  0
 13 11  1  0  0  0  0
 15 18  1  0  0  0  0
 15 14  1  0  0  0  0
 16 20  1  0  0  0  0
 16 17  1  0  0  0  0
 18 16  1  0  0  0  0
 19 18  2  0  0  0  0
 20 21  1  0  0  0  0
 21 23  1  0  0  0  0
 23 22  1  0  0  0  0
 23 24  1  0  0  0  0
M  END
>  <MODEL>
7

>  <REMARK>
  Name = ZINC48045941
                            x       y       z     vdW  Elec       q    Type
                         _______ _______ _______ _____ _____    ______ ____

>  <TORSDO>
F 8

>  <minimizedAffinity>
-7.0720726420743771

$$$$
ZINC48045941
 OpenBabel10211214573D

 24 24  0  0  0  0  0  0  0  0999 V2000
   50.2820   56.3650   21.3770 C   0  0  0  0  0  0  0  0  0  0  0  0
   50.8890   57.1910   22.0290 O   0  0  0  0  0  0  0  0  0  0  0  0
   50.9720   55.1580   20.8890 C   0  0  0  0  0  0  0  0  0  0  0  0
   51.1970   54.0810   21.7510 C   0  0  0  0  0  0  0  0  0  0  0  0
   51.8470   52.9510   21.2860 C   0  0  0  0  0  0  0  0  0  0  0  0
   52.2770   52.8880   19.9620 C   0  0  0  0  0  0  0  0  0  0  0  0
   52.9100   51.7840   19.5120 F   0  0  0  0  0  0  0  0  0  0  0  0
   52.0550   53.9520   19.1070 C   0  0  0  0  0  0  0  0  0  0  0  0
   51.4020   55.0840   19.5590 C   0  0  0  0  0  0  0  0  0  0  0  0
   51.1830   56.1200   18.7190 F   0  0  0  0  0  0  0  0  0  0  0  0
   52.0720   51.8700   22.1470 N   0  0  0  0  0  0  0  0  0  0  0  0
   52.9740   51.6640   22.4400 H   0  0  0  0  0  0  0  0  0  0  0  0
   51.3270   51.3290   22.4520 H   0  0  0  0  0  0  0  0  0  0  0  0
   48.9770   56.5540   21.0990 O   0  0  0  0  0  0  0  0  0  0  0  0
   48.5180   57.9050   21.0230 C   0  0  0  0  0  0  0  0  0  0  0  0
   47.5420   59.4090   19.3180 N   0  0  0  0  0  0  0  0  0  0  0  0
   47.4550   60.0840   20.0090 H   0  0  0  0  0  0  0  0  0  0  0  0
   48.0670   58.2030   19.6160 C   0  0  0  0  0  0  0  0  0  0  0  0
   48.1760   57.3590   18.7520 O   0  0  0  0  0  0  0  0  0  0  0  0
   47.1040   59.6990   17.9510 C   0  0  0  0  0  0  0  0  0  0  0  0
   46.4490   61.0820   17.9080 C   0  0  0  0  0  0  0  0  0  0  0  0
   46.3890   62.7420   19.7740 C   0  0  0  0  0  0  0  0  0  0  0  0
   45.8450   61.4020   19.2760 C   0  0  0  0  0  0  0  0  0  0  0  0
   44.3210   61.4830   19.1550 C   0  0  0  0  0  0  0  0  0  0  0  0
  1  2  2  0  0  0  0
  3  1  1  0  0  0  0
  3  4  2  0  0  0  0
  5  4  1  0  0  0  0
  5 11  1  0  0  0  0
  6  5  2  0  0  0  0
  7  6  1  0  0  0  0
  8  9  2  0  0  0  0
  8  6  1  0  0  0  0
  9  3  1  0  0  0  0
 10  9  1  0  0  0  0
 11 12  1  0  0  0  0
 11 13  1  0  0  0  0
 14  1  1  0  0  0  0
 15 14  1  0  0  0  0
 16 18  1  0  0  0  0
 16 17  1  0  0  0  0
 18 15  1  0  0  0  0
 19 18  2  0  0  0  0
 20 16  1  0  0  0  0
 21 20  1  0  0  0  0
 21 23  1  0  0  0  0
 23 22  1  0  0  0  0
 24 23  1  0  0  0  0
M  END
>  <MODEL>
8

>  <REMARK>
  Name = ZINC48045941
                            x       y       z     vdW  Elec       q    Type
                         _______ _______ _______ _____ _____    ______ ____

>  <TORSDO>
F 8

>  <minimizedAffinity>
-6.7952776188204522

$$$$
ZINC48045941
 OpenBabel10211214573D

 24 24  0  0  0  0  0  0  0  0999 V2000
   51.4650   52.5740   18.5870 C   0  0  0  0  0  0  0  0  0  0  0  0
   52.4930   52.5580   17.9400 O   0  0  0  0  0  0  0  0  0  0  0  0
   50.2780   51.8460   18.1050 C   0  0  0  0  0  0  0  0  0  0  0  0
   50.2380   50.4500   18.1670 C   0  0  0  0  0  0  0  0  0  0  0  0
   49.1210   49.7730   17.7110 C   0  0  0  0  0  0  0  0  0  0  0  0
   48.0400   50.4810   17.1900 C   0  0  0  0  0  0  0  0  0  0  0  0
   46.9520   49.8160   16.7460 F   0  0  0  0  0  0  0  0  0  0  0  0
   48.0770   51.8620   17.1270 C   0  0  0  0  0  0  0  0  0  0  0  0
   49.1860   52.5500   17.5850 C   0  0  0  0  0  0  0  0  0  0  0  0
   49.2170   53.8990   17.5270 F   0  0  0  0  0  0  0  0  0  0  0  0
   49.0770   48.3750   17.7740 N   0  0  0  0  0  0  0  0  0  0  0  0
   48.7300   47.9360   18.5670 H   0  0  0  0  0  0  0  0  0  0  0  0
   49.3930   47.8450   17.0250 H   0  0  0  0  0  0  0  0  0  0  0  0
   51.4100   53.2600   19.7470 O   0  0  0  0  0  0  0  0  0  0  0  0
   52.4810   54.1660   20.0150 C   0  0  0  0  0  0  0  0  0  0  0  0
   51.4440   56.0220   21.2800 N   0  0  0  0  0  0  0  0  0  0  0  0
   51.4370   55.4460   22.0600 H   0  0  0  0  0  0  0  0  0  0  0  0
   51.9390   55.5700   20.1110 C   0  0  0  0  0  0  0  0  0  0  0  0
   51.9480   56.2920   19.1370 O   0  0  0  0  0  0  0  0  0  0  0  0
   50.9170   57.3860   21.3740 C   0  0  0  0  0  0  0  0  0  0  0  0
   49.4080   57.3340   21.6250 C   0  0  0  0  0  0  0  0  0  0  0  0
   48.2180   55.9180   19.9460 C   0  0  0  0  0  0  0  0  0  0  0  0
   48.6680   57.3400   20.2860 C   0  0  0  0  0  0  0  0  0  0  0  0
   47.4440   58.2530   20.3850 C   0  0  0  0  0  0  0  0  0  0  0  0
  1 14  1  0  0  0  0
  2  1  2  0  0  0  0
  3  4  1  0  0  0  0
  3  1  1  0  0  0  0
  5 11  1  0  0  0  0
  5  4  2  0  0  0  0
  6  5  1  0  0  0  0
  7  6  1  0  0  0  0
  8  6  2  0  0  0  0
  8  9  1  0  0  0  0
  9  3  2  0  0  0  0
 10  9  1  0  0  0  0
 11 12  1  0  0  0  0
 13 11  1  0  0  0  0
 14 15  1  0  0  0  0
 15 18  1  0  0  0  0
 16 20  1  0  0  0  0
 16 17  1  0  0  0  0
 18 16  1  0  0  0  0
 19 18  2  0  0  0  0
 20 21  1  0  0  0  0
 22 23  1  0  0  0  0
 23 24  1  0  0  0  0
 23 21  1  0  0  0  0
M  END
>  <MODEL>
9

>  <REMARK>
  Name = ZINC48045941
                            x       y       z     vdW  Elec       q    Type
                         _______ _______ _______ _____ _____    ______ ____

>  <TORSDO>
F 8

>  <minimizedAffinity>
-6.7229161980438992

$$$$
ZINC36881341
 OpenBabel10211214583D

 13 12  0  0  0  0  0  0  0  0999 V2000
   52.3370   56.3840   20.3350 S   0  0  0  0  0  0  0  0  0  0  0  0
   51.8850   55.9460   19.0600 O   0  0  0  0  0  0  0  0  0  0  0  0
   53.7120   56.6590   20.5610 O   0  0  0  0  0  0  0  0  0  0  0  0
   51.9830   55.1310   21.3610 N   0  0  0  0  0  0  0  0  0  0  0  0
   52.0730   55.2500   22.3190 H   0  0  0  0  0  0  0  0  0  0  0  0
   50.0860   53.9730   20.3390 C   0  0  0  0  0  0  0  0  0  0  0  0
   51.5330   53.8460   20.8200 C   0  0  0  0  0  0  0  0  0  0  0  0
   52.4280   53.4470   19.6440 C   0  0  0  0  0  0  0  0  0  0  0  0
   51.6170   52.7770   21.9110 C   0  0  0  0  0  0  0  0  0  0  0  0
   51.3170   57.7660   20.9180 C   0  0  0  0  0  0  0  0  0  0  0  0
   50.2840   57.2490   21.9220 C   0  0  0  0  0  0  0  0  0  0  0  0
   48.9520   57.9660   21.6980 C   0  0  0  0  0  0  0  0  0  0  0  0
   47.9960   57.0810   20.4510 Cl  0  0  0  0  0  0  0  0  0  0  0  0
  1  3  2  0  0  0  0
  1 10  1  0  0  0  0
  1  4  1  0  0  0  0
  2  1  2  0  0  0  0
  4  5  1  0  0  0  0
  6  7  1  0  0  0  0
  7  4  1  0  0  0  0
  7  9  1  0  0  0  0
  8  7  1  0  0  0  0
 10 11  1  0  0  0  0
 12 11  1  0  0  0  0
 13 12  1  0  0  0  0
M  END
>  <MODEL>
1

>  <REMARK>
  Name = ZINC36881341
                            x       y       z     vdW  Elec       q    Type
                         _______ _______ _______ _____ _____    ______ ____

>  <TORSDO>
F 5

>  <minimizedAffinity>
-5.0600879183663583

$$$$
ZINC36881341
 OpenBabel10211214583D

 13 12  0  0  0  0  0  0  0  0999 V2000
   52.2300   56.4640   20.5560 S   0  0  0  0  0  0  0  0  0  0  0  0
   51.5810   56.1790   19.3250 O   0  0  0  0  0  0  0  0  0  0  0  0
   53.6320   56.6920   20.6000 O   0  0  0  0  0  0  0  0  0  0  0  0
   51.9930   55.1110   21.4820 N   0  0  0  0  0  0  0  0  0  0  0  0
   52.1520   55.1440   22.4380 H   0  0  0  0  0  0  0  0  0  0  0  0
   52.3930   53.5830   19.6140 C   0  0  0  0  0  0  0  0  0  0  0  0
   51.5440   53.8640   20.8560 C   0  0  0  0  0  0  0  0  0  0  0  0
   51.6960   52.7110   21.8500 C   0  0  0  0  0  0  0  0  0  0  0  0
   50.0750   53.9980   20.4510 C   0  0  0  0  0  0  0  0  0  0  0  0
   51.3530   57.7870   21.4330 C   0  0  0  0  0  0  0  0  0  0  0  0
   50.0410   57.2400   22.0000 C   0  0  0  0  0  0  0  0  0  0  0  0
   48.8830   58.1400   21.5650 C   0  0  0  0  0  0  0  0  0  0  0  0
   47.7680   57.2080   20.4970 Cl  0  0  0  0  0  0  0  0  0  0  0  0
  1  3  2  0  0  0  0
  1 10  1  0  0  0  0
  1  4  1  0  0  0  0
  2  1  2  0  0  0  0
  4  5  1  0  0  0  0
  6  7  1  0  0  0  0
  7  4  1  0  0  0  0
  7  8  1  0  0  0  0
  9  7  1  0  0  0  0
 10 11  1  0  0  0  0
 12 11  1  0  0  0  0
 13 12  1  0  0  0  0
M  END
>  <MODEL>
2

>  <REMARK>
  Name = ZINC36881341
                            x       y       z     vdW  Elec       q    Type
                         _______ _______ _______ _____ _____    ______ ____

>  <TORSDO>
F 5

>  <minimizedAffinity>
-5.0495322604073341

$$$$
ZINC36881341
 OpenBabel10211214583D

 13 12  0  0  0  0  0  0  0  0999 V2000
   51.9920   50.7240   19.7360 S   0  0  0  0  0  0  0  0  0  0  0  0
   53.0410   50.9230   20.6730 O   0  0  0  0  0  0  0  0  0  0  0  0
   52.1940   50.9930   18.3550 O   0  0  0  0  0  0  0  0  0  0  0  0
   50.8040   51.7800   20.2020 N   0  0  0  0  0  0  0  0  0  0  0  0
   49.8830   51.4800   20.2530 H   0  0  0  0  0  0  0  0  0  0  0  0
   51.6270   53.2350   21.9880 C   0  0  0  0  0  0  0  0  0  0  0  0
   51.1440   53.1650   20.5370 C   0  0  0  0  0  0  0  0  0  0  0  0
   52.2530   53.6570   19.6050 C   0  0  0  0  0  0  0  0  0  0  0  0
   49.9070   54.0490   20.3680 C   0  0  0  0  0  0  0  0  0  0  0  0
   51.2650   49.0770   19.9530 C   0  0  0  0  0  0  0  0  0  0  0  0
   49.7400   49.1950   19.9980 C   0  0  0  0  0  0  0  0  0  0  0  0
   49.1580   48.8000   18.6390 C   0  0  0  0  0  0  0  0  0  0  0  0
   47.3610   48.7030   18.7610 Cl  0  0  0  0  0  0  0  0  0  0  0  0
  1 10  1  0  0  0  0
  1  4  1  0  0  0  0
  1  2  2  0  0  0  0
  3  1  2  0  0  0  0
  4  5  1  0  0  0  0
  4  7  1  0  0  0  0
  7  6  1  0  0  0  0
  8  7  1  0  0  0  0
  9  7  1  0  0  0  0
 10 11  1  0  0  0  0
 12 13  1  0  0  0  0
 12 11  1  0  0  0  0
M  END
>  <MODEL>
3

>  <REMARK>
  Name = ZINC36881341
                            x       y       z     vdW  Elec       q    Type
                         _______ _______ _______ _____ _____    ______ ____

>  <TORSDO>
F 5

>  <minimizedAffinity>
-4.6452104633360802

$$$$
ZINC36881341
 OpenBabel10211214583D

 13 12  0  0  0  0  0  0  0  0999 V2000
   47.6530   47.7760   16.1700 S   0  0  0  0  0  0  0  0  0  0  0  0
   47.7780   46.4520   16.6710 O   0  0  0  0  0  0  0  0  0  0  0  0
   46.8880   48.0400   15.0020 O   0  0  0  0  0  0  0  0  0  0  0  0
   49.1970   48.2260   15.7750 N   0  0  0  0  0  0  0  0  0  0  0  0
   49.9390   47.6330   15.9700 H   0  0  0  0  0  0  0  0  0  0  0  0
   49.5640   50.6070   16.1990 C   0  0  0  0  0  0  0  0  0  0  0  0
   49.4420   49.5180   15.1300 C   0  0  0  0  0  0  0  0  0  0  0  0
   50.7390   49.4490   14.3220 C   0  0  0  0  0  0  0  0  0  0  0  0
   48.2770   49.8510   14.1960 C   0  0  0  0  0  0  0  0  0  0  0  0
   47.1660   48.9040   17.5050 C   0  0  0  0  0  0  0  0  0  0  0  0
   45.7200   49.3550   17.2900 C   0  0  0  0  0  0  0  0  0  0  0  0
   44.7680   48.2420   17.7320 C   0  0  0  0  0  0  0  0  0  0  0  0
   45.4370   47.4260   19.1940 Cl  0  0  0  0  0  0  0  0  0  0  0  0
  1  2  2  0  0  0  0
  1 10  1  0  0  0  0
  3  1  2  0  0  0  0
  4  5  1  0  0  0  0
  4  1  1  0  0  0  0
  7  4  1  0  0  0  0
  7  6  1  0  0  0  0
  8  7  1  0  0  0  0
  9  7  1  0  0  0  0
 11 10  1  0  0  0  0
 11 12  1  0  0  0  0
 12 13  1  0  0  0  0
M  END
>  <MODEL>
4

>  <REMARK>
  Name = ZINC36881341
                            x       y       z     vdW  Elec       q    Type
                         _______ _______ _______ _____ _____    ______ ____

>  <TORSDO>
F 5

>  <minimizedAffinity>
-4.5861179118396063

$$$$
ZINC36881341
 OpenBabel10211214583D

 13 12  0  0  0  0  0  0  0  0999 V2000
   51.6690   53.9170   21.1090 S   0  0  0  0  0  0  0  0  0  0  0  0
   52.1050   54.8900   22.0480 O   0  0  0  0  0  0  0  0  0  0  0  0
   52.3020   53.7970   19.8420 O   0  0  0  0  0  0  0  0  0  0  0  0
   50.1040   54.3370   20.7610 N   0  0  0  0  0  0  0  0  0  0  0  0
   49.3930   53.6870   20.8710 H   0  0  0  0  0  0  0  0  0  0  0  0
   49.9730   56.6830   21.4400 C   0  0  0  0  0  0  0  0  0  0  0  0
   49.7960   55.6890   20.2890 C   0  0  0  0  0  0  0  0  0  0  0  0
   50.7440   56.0580   19.1460 C   0  0  0  0  0  0  0  0  0  0  0  0
   48.3510   55.7380   19.7900 C   0  0  0  0  0  0  0  0  0  0  0  0
   51.5490   52.2920   21.9050 C   0  0  0  0  0  0  0  0  0  0  0  0
   52.1030   51.2200   20.9630 C   0  0  0  0  0  0  0  0  0  0  0  0
   50.9510   50.5810   20.1850 C   0  0  0  0  0  0  0  0  0  0  0  0
   50.5100   49.0090   20.9480 Cl  0  0  0  0  0  0  0  0  0  0  0  0
  1 10  1  0  0  0  0
  1  2  2  0  0  0  0
  3  1  2  0  0  0  0
  4  5  1  0  0  0  0
  4  1  1  0  0  0  0
  7  4  1  0  0  0  0
  7  6  1  0  0  0  0
  8  7  1  0  0  0  0
  9  7  1  0  0  0  0
 11 10  1  0  0  0  0
 12 13  1  0  0  0  0
 12 11  1  0  0  0  0
M  END
>  <MODEL>
5

>  <REMARK>
  Name = ZINC36881341
                            x       y       z     vdW  Elec       q    Type
                         _______ _______ _______ _____ _____    ______ ____

>  <TORSDO>
F 5

>  <minimizedAffinity>
-4.5504921165369998

$$$$
ZINC36881341
 OpenBabel10211214583D

 13 12  0  0  0  0  0  0  0  0999 V2000
   51.8130   55.1870   21.5070 S   0  0  0  0  0  0  0  0  0  0  0  0
   52.3030   55.9470   22.6030 O   0  0  0  0  0  0  0  0  0  0  0  0
   52.3900   55.3240   20.2150 O   0  0  0  0  0  0  0  0  0  0  0  0
   50.2420   55.6780   21.3220 N   0  0  0  0  0  0  0  0  0  0  0  0
   49.5170   55.0980   21.6010 H   0  0  0  0  0  0  0  0  0  0  0  0
   49.0530   57.7840   21.6900 C   0  0  0  0  0  0  0  0  0  0  0  0
   49.9480   56.9890   20.7370 C   0  0  0  0  0  0  0  0  0  0  0  0
   51.2550   57.7510   20.5090 C   0  0  0  0  0  0  0  0  0  0  0  0
   49.2270   56.8000   19.4000 C   0  0  0  0  0  0  0  0  0  0  0  0
   51.7030   53.4350   21.9610 C   0  0  0  0  0  0  0  0  0  0  0  0
   50.4520   52.8220   21.3300 C   0  0  0  0  0  0  0  0  0  0  0  0
   50.8100   52.2160   19.9720 C   0  0  0  0  0  0  0  0  0  0  0  0
   50.1170   53.2360   18.6570 Cl  0  0  0  0  0  0  0  0  0  0  0  0
  1 10  1  0  0  0  0
  1  2  2  0  0  0  0
  3  1  2  0  0  0  0
  4  1  1  0  0  0  0
  4  5  1  0  0  0  0
  7  4  1  0  0  0  0
  7  6  1  0  0  0  0
  8  7  1  0  0  0  0
  9  7  1  0  0  0  0
 11 10  1  0  0  0  0
 12 11  1  0  0  0  0
 13 12  1  0  0  0  0
M  END
>  <MODEL>
6

>  <REMARK>
  Name = ZINC36881341
                            x       y       z     vdW  Elec       q    Type
                         _______ _______ _______ _____ _____    ______ ____

>  <TORSDO>
F 5

>  <minimizedAffinity>
-4.5192305327916769

$$$$
ZINC36881341
 OpenBabel10211214583D

 13 12  0  0  0  0  0  0  0  0999 V2000
   52.2860   52.2780   18.8710 S   0  0  0  0  0  0  0  0  0  0  0  0
   52.6690   51.9840   20.2070 O   0  0  0  0  0  0  0  0  0  0  0  0
   53.1940   52.9070   17.9780 O   0  0  0  0  0  0  0  0  0  0  0  0
   51.0290   53.3470   19.0180 N   0  0  0  0  0  0  0  0  0  0  0  0
   50.4530   53.5250   18.2580 H   0  0  0  0  0  0  0  0  0  0  0  0
   49.5360   54.8970   20.1810 C   0  0  0  0  0  0  0  0  0  0  0  0
   50.7880   54.0230   20.2950 C   0  0  0  0  0  0  0  0  0  0  0  0
   50.5820   52.9790   21.3940 C   0  0  0  0  0  0  0  0  0  0  0  0
   51.9920   54.8990   20.6430 C   0  0  0  0  0  0  0  0  0  0  0  0
   51.5590   50.8090   18.0930 C   0  0  0  0  0  0  0  0  0  0  0  0
   50.0910   50.6870   18.5060 C   0  0  0  0  0  0  0  0  0  0  0  0
   49.8510   49.3140   19.1350 C   0  0  0  0  0  0  0  0  0  0  0  0
   50.5820   49.2720   20.7830 Cl  0  0  0  0  0  0  0  0  0  0  0  0
  1  4  1  0  0  0  0
  1  2  2  0  0  0  0
  3  1  2  0  0  0  0
  4  7  1  0  0  0  0
  5  4  1  0  0  0  0
  6  7  1  0  0  0  0
  7  9  1  0  0  0  0
  7  8  1  0  0  0  0
 10 11  1  0  0  0  0
 10  1  1  0  0  0  0
 11 12  1  0  0  0  0
 12 13  1  0  0  0  0
M  END
>  <MODEL>
7

>  <REMARK>
  Name = ZINC36881341
                            x       y       z     vdW  Elec       q    Type
                         _______ _______ _______ _____ _____    ______ ____

>  <TORSDO>
F 5

>  <minimizedAffinity>
-4.5158879248140149

$$$$
ZINC36881341
 OpenBabel10211214583D

 13 12  0  0  0  0  0  0  0  0999 V2000
   45.3220   46.9210   15.7160 S   0  0  0  0  0  0  0  0  0  0  0  0
   44.0670   47.5200   16.0090 O   0  0  0  0  0  0  0  0  0  0  0  0
   45.3980   45.5680   15.2890 O   0  0  0  0  0  0  0  0  0  0  0  0
   46.1520   46.9590   17.1500 N   0  0  0  0  0  0  0  0  0  0  0  0
   46.8730   46.3310   17.3080 H   0  0  0  0  0  0  0  0  0  0  0  0
   47.0620   48.4050   18.9000 C   0  0  0  0  0  0  0  0  0  0  0  0
   45.7950   47.9400   18.1770 C   0  0  0  0  0  0  0  0  0  0  0  0
   45.1130   49.1420   17.5200 C   0  0  0  0  0  0  0  0  0  0  0  0
   44.8390   47.3000   19.1850 C   0  0  0  0  0  0  0  0  0  0  0  0
   46.2750   47.9850   14.5980 C   0  0  0  0  0  0  0  0  0  0  0  0
   47.6930   48.1600   15.1470 C   0  0  0  0  0  0  0  0  0  0  0  0
   48.1140   49.6240   15.0100 C   0  0  0  0  0  0  0  0  0  0  0  0
   49.7480   49.7110   14.2510 Cl  0  0  0  0  0  0  0  0  0  0  0  0
  1  2  2  0  0  0  0
  1  4  1  0  0  0  0
  3  1  2  0  0  0  0
  4  5  1  0  0  0  0
  4  7  1  0  0  0  0
  7  6  1  0  0  0  0
  7  9  1  0  0  0  0
  8  7  1  0  0  0  0
 10 11  1  0  0  0  0
 10  1  1  0  0  0  0
 12 11  1  0  0  0  0
 13 12  1  0  0  0  0
M  END
>  <MODEL>
8

>  <REMARK>
  Name = ZINC36881341
                            x       y       z     vdW  Elec       q    Type
                         _______ _______ _______ _____ _____    ______ ____

>  <TORSDO>
F 5

>  <minimizedAffinity>
-4.5121891091260853

$$$$
ZINC36881341
 OpenBabel10211214583D

 13 12  0  0  0  0  0  0  0  0999 V2000
   47.7760   48.7790   18.0000 S   0  0  0  0  0  0  0  0  0  0  0  0
   48.5710   49.0570   19.1450 O   0  0  0  0  0  0  0  0  0  0  0  0
   48.3140   48.0490   16.9050 O   0  0  0  0  0  0  0  0  0  0  0  0
   47.4020   50.2660   17.3730 N   0  0  0  0  0  0  0  0  0  0  0  0
   46.5510   50.6790   17.5830 H   0  0  0  0  0  0  0  0  0  0  0  0
   47.9500   52.4240   16.3590 C   0  0  0  0  0  0  0  0  0  0  0  0
   48.3580   50.9560   16.5030 C   0  0  0  0  0  0  0  0  0  0  0  0
   49.7580   50.8740   17.1160 C   0  0  0  0  0  0  0  0  0  0  0  0
   48.3650   50.2910   15.1250 C   0  0  0  0  0  0  0  0  0  0  0  0
   46.1840   48.0710   18.5020 C   0  0  0  0  0  0  0  0  0  0  0  0
   45.0600   48.7150   17.6880 C   0  0  0  0  0  0  0  0  0  0  0  0
   44.6090   47.7500   16.5900 C   0  0  0  0  0  0  0  0  0  0  0  0
   45.3390   48.2450   15.0170 Cl  0  0  0  0  0  0  0  0  0  0  0  0
  1 10  1  0  0  0  0
  1  2  2  0  0  0  0
  3  1  2  0  0  0  0
  4  5  1  0  0  0  0
  4  1  1  0  0  0  0
  6  7  1  0  0  0  0
  7  8  1  0  0  0  0
  7  4  1  0  0  0  0
  9  7  1  0  0  0  0
 11 10  1  0  0  0  0
 12 11  1  0  0  0  0
 13 12  1  0  0  0  0
M  END
>  <MODEL>
9

>  <REMARK>
  Name = ZINC36881341
                            x       y       z     vdW  Elec       q    Type
                         _______ _______ _______ _____ _____    ______ ____

>  <TORSDO>
F 5

>  <minimizedAffinity>
-4.4886258715954126

$$$$
ZINC61640403
 OpenBabel10211214593D

 16 17  0  0  0  0  0  0  0  0999 V2000
   51.8670   57.0740   21.7590 C   0  0  0  0  0  0  0  0  0  0  0  0
   50.5360   57.4430   21.5900 C   0  0  0  0  0  0  0  0  0  0  0  0
   49.6520   56.5360   21.0350 C   0  0  0  0  0  0  0  0  0  0  0  0
   50.1290   55.2840   20.6680 C   0  0  0  0  0  0  0  0  0  0  0  0
   49.0600   54.1090   19.9680 Cl  0  0  0  0  0  0  0  0  0  0  0  0
   51.4630   54.9840   20.8650 C   0  0  0  0  0  0  0  0  0  0  0  0
   52.2840   55.8720   21.3920 N   0  0  0  0  0  0  0  0  0  0  0  0
   54.1760   57.9450   21.9150 C   0  0  0  0  0  0  0  0  0  0  0  0
   52.7670   57.9750   22.3160 N   0  0  0  0  0  0  0  0  0  0  0  0
   52.4630   58.6240   22.9690 H   0  0  0  0  0  0  0  0  0  0  0  0
   51.9870   53.6280   20.4690 C   0  0  0  0  0  0  0  0  0  0  0  0
   51.9870   52.7670   21.6090 O   0  0  0  0  0  0  0  0  0  0  0  0
   52.1440   51.3820   21.2910 C   0  0  0  0  0  0  0  0  0  0  0  0
   50.8580   50.8570   20.6490 C   0  0  0  0  0  0  0  0  0  0  0  0
   50.6150   49.3470   20.6870 C   0  0  0  0  0  0  0  0  0  0  0  0
   50.9930   50.0290   19.3710 C   0  0  0  0  0  0  0  0  0  0  0  0
  1  9  1  0  0  0  0
  2  1  1  0  0  0  0
  3  2  2  0  0  0  0
  4  6  2  0  0  0  0
  4  3  1  0  0  0  0
  5  4  1  0  0  0  0
  6  7  1  0  0  0  0
  7  1  2  0  0  0  0
  8  9  1  0  0  0  0
  9 10  1  0  0  0  0
 11  6  1  0  0  0  0
 11 12  1  0  0  0  0
 13 12  1  0  0  0  0
 14 15  1  0  0  0  0
 14 13  1  0  0  0  0
 16 14  1  0  0  0  0
 16 15  1  0  0  0  0
M  END
>  <MODEL>
1

>  <REMARK>
  Name = ZINC61640403
                            x       y       z     vdW  Elec       q    Type
                         _______ _______ _______ _____ _____    ______ ____

>  <TORSDO>
F 5

>  <minimizedAffinity>
-5.9477927113745368

$$$$
ZINC61640403
 OpenBabel10211214593D

 16 17  0  0  0  0  0  0  0  0999 V2000
   51.6790   53.0270   19.2350 C   0  0  0  0  0  0  0  0  0  0  0  0
   51.3760   52.3870   20.4330 C   0  0  0  0  0  0  0  0  0  0  0  0
   51.3950   53.1140   21.6090 C   0  0  0  0  0  0  0  0  0  0  0  0
   51.7190   54.4640   21.5480 C   0  0  0  0  0  0  0  0  0  0  0  0
   51.7570   55.4220   22.9950 Cl  0  0  0  0  0  0  0  0  0  0  0  0
   52.0090   55.0360   20.3250 C   0  0  0  0  0  0  0  0  0  0  0  0
   51.9860   54.3150   19.2190 N   0  0  0  0  0  0  0  0  0  0  0  0
   50.9200   51.0480   17.9610 C   0  0  0  0  0  0  0  0  0  0  0  0
   51.6630   52.3080   18.0450 N   0  0  0  0  0  0  0  0  0  0  0  0
   52.1440   52.6410   17.2710 H   0  0  0  0  0  0  0  0  0  0  0  0
   52.3590   56.5000   20.2520 C   0  0  0  0  0  0  0  0  0  0  0  0
   51.2270   57.2800   20.6400 O   0  0  0  0  0  0  0  0  0  0  0  0
   50.0210   56.9370   19.9520 C   0  0  0  0  0  0  0  0  0  0  0  0
   48.8480   56.9680   20.9330 C   0  0  0  0  0  0  0  0  0  0  0  0
   47.7070   57.9440   20.6390 C   0  0  0  0  0  0  0  0  0  0  0  0
   48.6760   58.2230   21.7900 C   0  0  0  0  0  0  0  0  0  0  0  0
  1  2  1  0  0  0  0
  2  3  2  0  0  0  0
  4  3  1  0  0  0  0
  4  5  1  0  0  0  0
  6  4  2  0  0  0  0
  7  1  2  0  0  0  0
  7  6  1  0  0  0  0
  8  9  1  0  0  0  0
  9  1  1  0  0  0  0
 10  9  1  0  0  0  0
 11  6  1  0  0  0  0
 11 12  1  0  0  0  0
 13 12  1  0  0  0  0
 13 14  1  0  0  0  0
 14 16  1  0  0  0  0
 15 14  1  0  0  0  0
 15 16  1  0  0  0  0
M  END
>  <MODEL>
2

>  <REMARK>
  Name = ZINC61640403
                            x       y       z     vdW  Elec       q    Type
                         _______ _______ _______ _____ _____    ______ ____

>  <TORSDO>
F 5

>  <minimizedAffinity>
-5.8586220071964075

$$$$
ZINC61640403
 OpenBabel10211214593D

 16 17  0  0  0  0  0  0  0  0999 V2000
   51.8650   51.7570   20.7860 C   0  0  0  0  0  0  0  0  0  0  0  0
   51.7240   52.6990   21.8020 C   0  0  0  0  0  0  0  0  0  0  0  0
   50.8580   53.7610   21.6190 C   0  0  0  0  0  0  0  0  0  0  0  0
   50.1570   53.8470   20.4220 C   0  0  0  0  0  0  0  0  0  0  0  0
   49.0570   55.1600   20.1430 Cl  0  0  0  0  0  0  0  0  0  0  0  0
   50.3450   52.8770   19.4570 C   0  0  0  0  0  0  0  0  0  0  0  0
   51.1830   51.8770   19.6580 N   0  0  0  0  0  0  0  0  0  0  0  0
   52.8660   49.6760   19.9020 C   0  0  0  0  0  0  0  0  0  0  0  0
   52.7330   50.6840   20.9570 N   0  0  0  0  0  0  0  0  0  0  0  0
   53.2500   50.6030   21.7740 H   0  0  0  0  0  0  0  0  0  0  0  0
   49.5890   52.9640   18.1570 C   0  0  0  0  0  0  0  0  0  0  0  0
   49.6070   51.6900   17.5100 O   0  0  0  0  0  0  0  0  0  0  0  0
   48.3350   51.0380   17.4750 C   0  0  0  0  0  0  0  0  0  0  0  0
   48.5280   49.5340   17.6770 C   0  0  0  0  0  0  0  0  0  0  0  0
   47.6030   48.8300   18.6730 C   0  0  0  0  0  0  0  0  0  0  0  0
   49.0720   49.0660   19.0280 C   0  0  0  0  0  0  0  0  0  0  0  0
  1  9  1  0  0  0  0
  1  2  2  0  0  0  0
  3  2  1  0  0  0  0
  4  3  2  0  0  0  0
  5  4  1  0  0  0  0
  6  7  2  0  0  0  0
  6  4  1  0  0  0  0
  7  1  1  0  0  0  0
  8  9  1  0  0  0  0
  9 10  1  0  0  0  0
 11  6  1  0  0  0  0
 12 11  1  0  0  0  0
 13 12  1  0  0  0  0
 13 14  1  0  0  0  0
 14 15  1  0  0  0  0
 14 16  1  0  0  0  0
 15 16  1  0  0  0  0
M  END
>  <MODEL>
3

>  <REMARK>
  Name = ZINC61640403
                            x       y       z     vdW  Elec       q    Type
                         _______ _______ _______ _____ _____    ______ ____

>  <TORSDO>
F 5

>  <minimizedAffinity>
-5.8430196383975579

$$$$
ZINC61640403
 OpenBabel10211214593D

 16 17  0  0  0  0  0  0  0  0999 V2000
   51.0570   50.9340   19.7730 C   0  0  0  0  0  0  0  0  0  0  0  0
   51.4890   50.9300   21.0960 C   0  0  0  0  0  0  0  0  0  0  0  0
   51.6400   52.1350   21.7580 C   0  0  0  0  0  0  0  0  0  0  0  0
   51.3520   53.3090   21.0720 C   0  0  0  0  0  0  0  0  0  0  0  0
   51.5250   54.8470   21.8580 Cl  0  0  0  0  0  0  0  0  0  0  0  0
   50.9270   53.2390   19.7600 C   0  0  0  0  0  0  0  0  0  0  0  0
   50.7970   52.0740   19.1530 N   0  0  0  0  0  0  0  0  0  0  0  0
   49.5700   49.1300   18.9660 C   0  0  0  0  0  0  0  0  0  0  0  0
   50.9010   49.7300   19.0960 N   0  0  0  0  0  0  0  0  0  0  0  0
   51.6730   49.2870   18.7090 H   0  0  0  0  0  0  0  0  0  0  0  0
   50.6130   54.5080   19.0110 C   0  0  0  0  0  0  0  0  0  0  0  0
   49.2090   54.7630   19.0760 O   0  0  0  0  0  0  0  0  0  0  0  0
   48.8710   56.1530   19.0790 C   0  0  0  0  0  0  0  0  0  0  0  0
   48.2300   56.5180   20.4190 C   0  0  0  0  0  0  0  0  0  0  0  0
   47.7280   57.9530   20.5940 C   0  0  0  0  0  0  0  0  0  0  0  0
   48.9900   57.4900   21.3240 C   0  0  0  0  0  0  0  0  0  0  0  0
  1  2  2  0  0  0  0
  2  3  1  0  0  0  0
  4  3  2  0  0  0  0
  4  5  1  0  0  0  0
  6  4  1  0  0  0  0
  7  6  2  0  0  0  0
  7  1  1  0  0  0  0
  8  9  1  0  0  0  0
  9  1  1  0  0  0  0
 10  9  1  0  0  0  0
 11 12  1  0  0  0  0
 11  6  1  0  0  0  0
 12 13  1  0  0  0  0
 13 14  1  0  0  0  0
 14 15  1  0  0  0  0
 14 16  1  0  0  0  0
 15 16  1  0  0  0  0
M  END
>  <MODEL>
4

>  <REMARK>
  Name = ZINC61640403
                            x       y       z     vdW  Elec       q    Type
                         _______ _______ _______ _____ _____    ______ ____

>  <TORSDO>
F 5

>  <minimizedAffinity>
-5.675361501318589

$$$$
ZINC61640403
 OpenBabel10211214593D

 16 17  0  0  0  0  0  0  0  0999 V2000
   50.3300   49.8410   19.0020 C   0  0  0  0  0  0  0  0  0  0  0  0
   49.2140   49.2250   18.4440 C   0  0  0  0  0  0  0  0  0  0  0  0
   48.2710   50.0010   17.7950 C   0  0  0  0  0  0  0  0  0  0  0  0
   48.4770   51.3730   17.7240 C   0  0  0  0  0  0  0  0  0  0  0  0
   47.3240   52.3920   16.9200 Cl  0  0  0  0  0  0  0  0  0  0  0  0
   49.6080   51.9180   18.2990 C   0  0  0  0  0  0  0  0  0  0  0  0
   50.4890   51.1530   18.9170 N   0  0  0  0  0  0  0  0  0  0  0  0
   52.6460   49.5900   19.8340 C   0  0  0  0  0  0  0  0  0  0  0  0
   51.2860   49.0730   19.6570 N   0  0  0  0  0  0  0  0  0  0  0  0
   51.0530   48.1950   19.9970 H   0  0  0  0  0  0  0  0  0  0  0  0
   49.8380   53.4060   18.2250 C   0  0  0  0  0  0  0  0  0  0  0  0
   51.1680   53.7040   18.6560 O   0  0  0  0  0  0  0  0  0  0  0  0
   51.2490   54.7880   19.5840 C   0  0  0  0  0  0  0  0  0  0  0  0
   50.7270   54.3310   20.9480 C   0  0  0  0  0  0  0  0  0  0  0  0
   51.5770   54.6610   22.1770 C   0  0  0  0  0  0  0  0  0  0  0  0
   51.4990   53.2220   21.6650 C   0  0  0  0  0  0  0  0  0  0  0  0
  1  9  1  0  0  0  0
  2  1  2  0  0  0  0
  3  2  1  0  0  0  0
  4  3  2  0  0  0  0
  4  6  1  0  0  0  0
  5  4  1  0  0  0  0
  6  7  2  0  0  0  0
  7  1  1  0  0  0  0
  9  8  1  0  0  0  0
  9 10  1  0  0  0  0
 11  6  1  0  0  0  0
 11 12  1  0  0  0  0
 12 13  1  0  0  0  0
 13 14  1  0  0  0  0
 14 16  1  0  0  0  0
 14 15  1  0  0  0  0
 16 15  1  0  0  0  0
M  END
>  <MODEL>
5

>  <REMARK>
  Name = ZINC61640403
                            x       y       z     vdW  Elec       q    Type
                         _______ _______ _______ _____ _____    ______ ____

>  <TORSDO>
F 5

>  <minimizedAffinity>
-5.6437916085274091

$$$$
ZINC61640403
 OpenBabel10211214593D

 16 17  0  0  0  0  0  0  0  0999 V2000
   50.4840   49.6320   19.1770 C   0  0  0  0  0  0  0  0  0  0  0  0
   49.3780   48.8790   18.7950 C   0  0  0  0  0  0  0  0  0  0  0  0
   48.3360   49.5010   18.1310 C   0  0  0  0  0  0  0  0  0  0  0  0
   48.4350   50.8620   17.8710 C   0  0  0  0  0  0  0  0  0  0  0  0
   47.1550   51.6910   17.0410 Cl  0  0  0  0  0  0  0  0  0  0  0  0
   49.5620   51.5490   18.2780 C   0  0  0  0  0  0  0  0  0  0  0  0
   50.5380   50.9280   18.9140 N   0  0  0  0  0  0  0  0  0  0  0  0
   52.8780   49.6090   19.7930 C   0  0  0  0  0  0  0  0  0  0  0  0
   51.5380   49.0190   19.8440 N   0  0  0  0  0  0  0  0  0  0  0  0
   51.3870   48.2010   20.3430 H   0  0  0  0  0  0  0  0  0  0  0  0
   49.6760   53.0250   17.9980 C   0  0  0  0  0  0  0  0  0  0  0  0
   48.9020   53.7520   18.9550 O   0  0  0  0  0  0  0  0  0  0  0  0
   49.3330   55.1010   19.1460 C   0  0  0  0  0  0  0  0  0  0  0  0
   48.3130   55.8450   20.0090 C   0  0  0  0  0  0  0  0  0  0  0  0
   47.9770   57.2870   19.6220 C   0  0  0  0  0  0  0  0  0  0  0  0
   48.8240   57.0060   20.8640 C   0  0  0  0  0  0  0  0  0  0  0  0
  1  9  1  0  0  0  0
  2  1  2  0  0  0  0
  3  2  1  0  0  0  0
  4  3  2  0  0  0  0
  4  6  1  0  0  0  0
  5  4  1  0  0  0  0
  6  7  2  0  0  0  0
  7  1  1  0  0  0  0
  8  9  1  0  0  0  0
  9 10  1  0  0  0  0
 11  6  1  0  0  0  0
 11 12  1  0  0  0  0
 12 13  1  0  0  0  0
 13 14  1  0  0  0  0
 14 16  1  0  0  0  0
 15 14  1  0  0  0  0
 15 16  1  0  0  0  0
M  END
>  <MODEL>
6

>  <REMARK>
  Name = ZINC61640403
                            x       y       z     vdW  Elec       q    Type
                         _______ _______ _______ _____ _____    ______ ____

>  <TORSDO>
F 5

>  <minimizedAffinity>
-5.6173964835754786

$$$$
ZINC61640403
 OpenBabel10211214593D

 16 17  0  0  0  0  0  0  0  0999 V2000
   51.9540   56.2660   20.9110 C   0  0  0  0  0  0  0  0  0  0  0  0
   51.6330   55.8280   22.1920 C   0  0  0  0  0  0  0  0  0  0  0  0
   51.5810   54.4700   22.4460 C   0  0  0  0  0  0  0  0  0  0  0  0
   51.8540   53.5900   21.4060 C   0  0  0  0  0  0  0  0  0  0  0  0
   51.8030   51.8750   21.6720 Cl  0  0  0  0  0  0  0  0  0  0  0  0
   52.1670   54.0930   20.1580 C   0  0  0  0  0  0  0  0  0  0  0  0
   52.2040   55.3950   19.9450 N   0  0  0  0  0  0  0  0  0  0  0  0
   52.8600   58.5020   21.4540 C   0  0  0  0  0  0  0  0  0  0  0  0
   52.0100   57.6290   20.6410 N   0  0  0  0  0  0  0  0  0  0  0  0
   51.4850   58.0010   19.9150 H   0  0  0  0  0  0  0  0  0  0  0  0
   52.4650   53.1450   19.0260 C   0  0  0  0  0  0  0  0  0  0  0  0
   51.2490   52.8120   18.3520 O   0  0  0  0  0  0  0  0  0  0  0  0
   51.0960   51.4160   18.0870 C   0  0  0  0  0  0  0  0  0  0  0  0
   49.9890   50.8470   18.9780 C   0  0  0  0  0  0  0  0  0  0  0  0
   50.1190   49.3880   19.4220 C   0  0  0  0  0  0  0  0  0  0  0  0
   49.0750   49.7790   18.3740 C   0  0  0  0  0  0  0  0  0  0  0  0
  1  2  2  0  0  0  0
  2  3  1  0  0  0  0
  4  5  1  0  0  0  0
  4  3  2  0  0  0  0
  6  4  1  0  0  0  0
  7  6  2  0  0  0  0
  7  1  1  0  0  0  0
  9  1  1  0  0  0  0
  9  8  1  0  0  0  0
 10  9  1  0  0  0  0
 11  6  1  0  0  0  0
 12 11  1  0  0  0  0
 13 12  1  0  0  0  0
 13 14  1  0  0  0  0
 14 15  1  0  0  0  0
 16 14  1  0  0  0  0
 16 15  1  0  0  0  0
M  END
>  <MODEL>
7

>  <REMARK>
  Name = ZINC61640403
                            x       y       z     vdW  Elec       q    Type
                         _______ _______ _______ _____ _____    ______ ____

>  <TORSDO>
F 5

>  <minimizedAffinity>
-5.5441668712464525

$$$$
ZINC61640403
 OpenBabel10211214593D

 16 17  0  0  0  0  0  0  0  0999 V2000
   50.8230   52.3430   19.7090 C   0  0  0  0  0  0  0  0  0  0  0  0
   50.0790   53.4970   19.4840 C   0  0  0  0  0  0  0  0  0  0  0  0
   49.1590   53.5140   18.4520 C   0  0  0  0  0  0  0  0  0  0  0  0
   49.0120   52.3710   17.6760 C   0  0  0  0  0  0  0  0  0  0  0  0
   47.8700   52.3390   16.3690 Cl  0  0  0  0  0  0  0  0  0  0  0  0
   49.7830   51.2600   17.9550 C   0  0  0  0  0  0  0  0  0  0  0  0
   50.6570   51.2750   18.9440 N   0  0  0  0  0  0  0  0  0  0  0  0
   51.6860   53.3070   21.8170 C   0  0  0  0  0  0  0  0  0  0  0  0
   51.7520   52.3120   20.7430 N   0  0  0  0  0  0  0  0  0  0  0  0
   52.4440   51.6320   20.7540 H   0  0  0  0  0  0  0  0  0  0  0  0
   49.6290   50.0170   17.1180 C   0  0  0  0  0  0  0  0  0  0  0  0
   49.2300   48.9270   17.9530 O   0  0  0  0  0  0  0  0  0  0  0  0
   48.0340   48.2730   17.5230 C   0  0  0  0  0  0  0  0  0  0  0  0
   46.8630   48.7270   18.3960 C   0  0  0  0  0  0  0  0  0  0  0  0
   45.7630   47.7040   18.6890 C   0  0  0  0  0  0  0  0  0  0  0  0
   45.4940   48.8640   17.7280 C   0  0  0  0  0  0  0  0  0  0  0  0
  1  9  1  0  0  0  0
  2  1  1  0  0  0  0
  3  2  2  0  0  0  0
  4  6  2  0  0  0  0
  4  3  1  0  0  0  0
  5  4  1  0  0  0  0
  6  7  1  0  0  0  0
  7  1  2  0  0  0  0
  9 10  1  0  0  0  0
  9  8  1  0  0  0  0
 11 12  1  0  0  0  0
 11  6  1  0  0  0  0
 13 12  1  0  0  0  0
 13 14  1  0  0  0  0
 14 15  1  0  0  0  0
 16 14  1  0  0  0  0
 16 15  1  0  0  0  0
M  END
>  <MODEL>
8

>  <REMARK>
  Name = ZINC61640403
                            x       y       z     vdW  Elec       q    Type
                         _______ _______ _______ _____ _____    ______ ____

>  <TORSDO>
F 5

>  <minimizedAffinity>
-5.5301430087210131

$$$$
ZINC61640403
 OpenBabel10211214593D

 16 17  0  0  0  0  0  0  0  0999 V2000
   44.9260   47.9170   17.7550 C   0  0  0  0  0  0  0  0  0  0  0  0
   44.5830   47.9540   16.4070 C   0  0  0  0  0  0  0  0  0  0  0  0
   45.5530   48.2710   15.4750 C   0  0  0  0  0  0  0  0  0  0  0  0
   46.8410   48.5410   15.9230 C   0  0  0  0  0  0  0  0  0  0  0  0
   48.0960   48.9440   14.7930 Cl  0  0  0  0  0  0  0  0  0  0  0  0
   47.1110   48.4850   17.2760 C   0  0  0  0  0  0  0  0  0  0  0  0
   46.1630   48.1850   18.1430 N   0  0  0  0  0  0  0  0  0  0  0  0
   44.3390   46.8790   19.9220 C   0  0  0  0  0  0  0  0  0  0  0  0
   43.9600   47.6000   18.7040 N   0  0  0  0  0  0  0  0  0  0  0  0
   43.0350   47.8550   18.5590 H   0  0  0  0  0  0  0  0  0  0  0  0
   48.5050   48.7760   17.7680 C   0  0  0  0  0  0  0  0  0  0  0  0
   48.6420   50.1790   18.0080 O   0  0  0  0  0  0  0  0  0  0  0  0
   49.7580   50.5210   18.8330 C   0  0  0  0  0  0  0  0  0  0  0  0
   50.3350   49.2510   19.4620 C   0  0  0  0  0  0  0  0  0  0  0  0
   50.5290   49.2400   20.9800 C   0  0  0  0  0  0  0  0  0  0  0  0
   51.7430   49.3320   20.0540 C   0  0  0  0  0  0  0  0  0  0  0  0
  1  7  1  0  0  0  0
  1  9  1  0  0  0  0
  2  1  2  0  0  0  0
  3  4  2  0  0  0  0
  3  2  1  0  0  0  0
  4  6  1  0  0  0  0
  5  4  1  0  0  0  0
  6 11  1  0  0  0  0
  6  7  2  0  0  0  0
  9  8  1  0  0  0  0
 10  9  1  0  0  0  0
 11 12  1  0  0  0  0
 12 13  1  0  0  0  0
 13 14  1  0  0  0  0
 14 16  1  0  0  0  0
 14 15  1  0  0  0  0
 16 15  1  0  0  0  0
M  END
>  <MODEL>
9

>  <REMARK>
  Name = ZINC61640403
                            x       y       z     vdW  Elec       q    Type
                         _______ _______ _______ _____ _____    ______ ____

>  <TORSDO>
F 5

>  <minimizedAffinity>
-5.5038363537254176

$$$$
ZINC45060882
 OpenBabel10211214593D

 18 18  0  0  1  0  0  0  0  0999 V2000
   50.7090   54.4810   19.6670 C   0  0  0  0  0  0  0  0  0  0  0  0
   49.6360   53.7100   19.4020 N   0  0  0  0  0  0  0  0  0  0  0  0
   48.9430   53.5960   20.0710 H   0  0  0  0  0  0  0  0  0  0  0  0
   51.5750   54.6230   18.8300 O   0  0  0  0  0  0  0  0  0  0  0  0
   49.5160   53.0430   18.1020 C   0  0  0  0  0  0  0  0  0  0  0  0
   48.0940   53.2220   17.5670 C   0  0  0  0  0  0  0  0  0  0  0  0
   47.9690   52.5250   16.2100 C   0  0  0  0  0  0  0  0  0  0  0  0
   48.2690   51.0340   16.3730 C   0  0  0  0  0  0  0  0  0  0  0  0
   49.6900   50.8550   16.9100 C   0  0  0  0  0  0  0  0  0  0  0  0
   49.8160   51.5520   18.2660 C   0  0  0  0  0  0  0  0  0  0  0  0
   50.8320   55.1660   21.0030 C   0  0  1  0  0  0  0  0  0  0  0  0
   51.6630   54.2960   21.9480 C   0  0  0  0  0  0  0  0  0  0  0  0
   51.4940   56.4660   20.8270 N   0  0  0  0  0  0  0  0  0  0  0  0
   49.4770   57.5730   21.6680 C   0  0  0  0  0  0  0  0  0  0  0  0
   50.5110   57.5220   20.5420 C   0  0  0  0  0  0  0  0  0  0  0  0
   52.3070   56.8070   22.0010 C   0  0  0  0  0  0  0  0  0  0  0  0
   53.4130   57.6890   21.5940 C   0  0  0  0  0  0  0  0  0  0  0  0
   54.2670   58.3690   21.2810 N   0  0  0  0  0  0  0  0  0  0  0  0
  2  1  1  0  0  0  0
  2  3  1  0  0  0  0
  4  1  2  0  0  0  0
  5 10  1  0  0  0  0
  5  2  1  0  0  0  0
  6  5  1  0  0  0  0
  7  8  1  0  0  0  0
  7  6  1  0  0  0  0
  8  9  1  0  0  0  0
  9 10  1  0  0  0  0
 11  1  1  6  0  0  0
 11 12  1  0  0  0  0
 13 11  1  0  0  0  0
 13 16  1  0  0  0  0
 15 13  1  0  0  0  0
 15 14  1  0  0  0  0
 17 16  1  0  0  0  0
 18 17  3  0  0  0  0
M  END
>  <MODEL>
1

>  <REMARK>
  Name = ZINC45060882
                            x       y       z     vdW  Elec       q    Type
                         _______ _______ _______ _____ _____    ______ ____

>  <TORSDO>
F 6

>  <minimizedAffinity>
-6.0834604665897825

$$$$
ZINC45060882
 OpenBabel10211214593D

 18 18  0  0  1  0  0  0  0  0999 V2000
   50.9560   54.2260   18.9860 C   0  0  0  0  0  0  0  0  0  0  0  0
   49.8060   54.6210   19.5660 N   0  0  0  0  0  0  0  0  0  0  0  0
   49.1180   53.9690   19.7740 H   0  0  0  0  0  0  0  0  0  0  0  0
   51.8160   55.0400   18.7260 O   0  0  0  0  0  0  0  0  0  0  0  0
   49.5940   56.0360   19.8830 C   0  0  0  0  0  0  0  0  0  0  0  0
   50.1080   56.3240   21.2950 C   0  0  0  0  0  0  0  0  0  0  0  0
   49.8860   57.8020   21.6260 C   0  0  0  0  0  0  0  0  0  0  0  0
   48.3930   58.1230   21.5510 C   0  0  0  0  0  0  0  0  0  0  0  0
   47.8780   57.8330   20.1400 C   0  0  0  0  0  0  0  0  0  0  0  0
   48.1000   56.3560   19.8080 C   0  0  0  0  0  0  0  0  0  0  0  0
   51.1740   52.7700   18.6600 C   0  0  1  0  0  0  0  0  0  0  0  0
   52.6500   52.5350   18.3360 C   0  0  0  0  0  0  0  0  0  0  0  0
   50.7880   51.9470   19.8140 N   0  0  0  0  0  0  0  0  0  0  0  0
   50.7730   49.5540   20.3340 C   0  0  0  0  0  0  0  0  0  0  0  0
   50.2750   50.6400   19.3800 C   0  0  0  0  0  0  0  0  0  0  0  0
   51.9110   51.7880   20.7460 C   0  0  0  0  0  0  0  0  0  0  0  0
   51.8220   52.8090   21.8020 C   0  0  0  0  0  0  0  0  0  0  0  0
   51.7540   53.5970   22.6170 N   0  0  0  0  0  0  0  0  0  0  0  0
  1  2  1  0  0  0  0
  2  3  1  0  0  0  0
  2  5  1  0  0  0  0
  4  1  2  0  0  0  0
  5  6  1  0  0  0  0
  6  7  1  0  0  0  0
  8  7  1  0  0  0  0
  9  8  1  0  0  0  0
 10  5  1  0  0  0  0
 10  9  1  0  0  0  0
 11 12  1  1  0  0  0
 11  1  1  0  0  0  0
 11 13  1  0  0  0  0
 13 16  1  0  0  0  0
 15 13  1  0  0  0  0
 15 14  1  0  0  0  0
 16 17  1  0  0  0  0
 17 18  3  0  0  0  0
M  END
>  <MODEL>
2

>  <REMARK>
  Name = ZINC45060882
                            x       y       z     vdW  Elec       q    Type
                         _______ _______ _______ _____ _____    ______ ____

>  <TORSDO>
F 6

>  <minimizedAffinity>
-5.9919964204535168

$$$$
ZINC45060882
 OpenBabel10211214593D

 18 18  0  0  1  0  0  0  0  0999 V2000
   50.8470   53.0200   19.0820 C   0  0  0  0  0  0  0  0  0  0  0  0
   49.9040   53.5750   19.8680 N   0  0  0  0  0  0  0  0  0  0  0  0
   49.3120   53.0090   20.3880 H   0  0  0  0  0  0  0  0  0  0  0  0
   51.5870   53.7270   18.4310 O   0  0  0  0  0  0  0  0  0  0  0  0
   49.7730   55.0330   19.9370 C   0  0  0  0  0  0  0  0  0  0  0  0
   50.3730   55.5370   21.2510 C   0  0  0  0  0  0  0  0  0  0  0  0
   50.2360   57.0600   21.3220 C   0  0  0  0  0  0  0  0  0  0  0  0
   48.7560   57.4410   21.2580 C   0  0  0  0  0  0  0  0  0  0  0  0
   48.1550   56.9360   19.9450 C   0  0  0  0  0  0  0  0  0  0  0  0
   48.2930   55.4140   19.8730 C   0  0  0  0  0  0  0  0  0  0  0  0
   50.9820   51.5210   19.0100 C   0  0  1  0  0  0  0  0  0  0  0  0
   51.2670   50.9670   20.4070 C   0  0  0  0  0  0  0  0  0  0  0  0
   49.7320   50.9410   18.4990 N   0  0  0  0  0  0  0  0  0  0  0  0
   48.3620   52.0650   16.8090 C   0  0  0  0  0  0  0  0  0  0  0  0
   49.5890   51.1870   17.0570 C   0  0  0  0  0  0  0  0  0  0  0  0
   49.6570   49.5060   18.7980 C   0  0  0  0  0  0  0  0  0  0  0  0
   48.2530   49.0630   18.7370 C   0  0  0  0  0  0  0  0  0  0  0  0
   47.1720   48.7220   18.6880 N   0  0  0  0  0  0  0  0  0  0  0  0
  1  2  1  0  0  0  0
  2  5  1  0  0  0  0
  2  3  1  0  0  0  0
  4  1  2  0  0  0  0
  5  6  1  0  0  0  0
  6  7  1  0  0  0  0
  8  7  1  0  0  0  0
  9  8  1  0  0  0  0
 10  5  1  0  0  0  0
 10  9  1  0  0  0  0
 11 13  1  1  0  0  0
 11  1  1  0  0  0  0
 11 12  1  0  0  0  0
 13 16  1  0  0  0  0
 14 15  1  0  0  0  0
 15 13  1  0  0  0  0
 17 16  1  0  0  0  0
 18 17  3  0  0  0  0
M  END
>  <MODEL>
3

>  <REMARK>
  Name = ZINC45060882
                            x       y       z     vdW  Elec       q    Type
                         _______ _______ _______ _____ _____    ______ ____

>  <TORSDO>
F 6

>  <minimizedAffinity>
-5.9889254862974584

$$$$
ZINC45060882
 OpenBabel10211214593D

 18 18  0  0  1  0  0  0  0  0999 V2000
   49.7610   50.3360   19.0400 C   0  0  0  0  0  0  0  0  0  0  0  0
   49.0970   49.2200   18.6820 N   0  0  0  0  0  0  0  0  0  0  0  0
   49.2150   48.4020   19.1890 H   0  0  0  0  0  0  0  0  0  0  0  0
   49.6140   51.3600   18.4070 O   0  0  0  0  0  0  0  0  0  0  0  0
   48.1960   49.2440   17.5270 C   0  0  0  0  0  0  0  0  0  0  0  0
   46.7570   49.0250   17.9980 C   0  0  0  0  0  0  0  0  0  0  0  0
   45.8160   49.0490   16.7910 C   0  0  0  0  0  0  0  0  0  0  0  0
   46.2080   47.9370   15.8170 C   0  0  0  0  0  0  0  0  0  0  0  0
   47.6470   48.1550   15.3470 C   0  0  0  0  0  0  0  0  0  0  0  0
   48.5880   48.1320   16.5530 C   0  0  0  0  0  0  0  0  0  0  0  0
   50.6890   50.3120   20.2280 C   0  0  1  0  0  0  0  0  0  0  0  0
   51.8570   49.3670   19.9450 C   0  0  0  0  0  0  0  0  0  0  0  0
   51.2030   51.6660   20.4750 N   0  0  0  0  0  0  0  0  0  0  0  0
   51.5260   53.4780   22.0900 C   0  0  0  0  0  0  0  0  0  0  0  0
   50.9180   52.0950   21.8510 C   0  0  0  0  0  0  0  0  0  0  0  0
   52.6410   51.7440   20.1860 C   0  0  0  0  0  0  0  0  0  0  0  0
   52.8590   52.5880   19.0000 C   0  0  0  0  0  0  0  0  0  0  0  0
   53.0280   53.2380   18.0850 N   0  0  0  0  0  0  0  0  0  0  0  0
  2  1  1  0  0  0  0
  2  3  1  0  0  0  0
  4  1  2  0  0  0  0
  5  6  1  0  0  0  0
  5  2  1  0  0  0  0
  7  6  1  0  0  0  0
  8  7  1  0  0  0  0
  9  8  1  0  0  0  0
  9 10  1  0  0  0  0
 10  5  1  0  0  0  0
 11  1  1  6  0  0  0
 11 13  1  0  0  0  0
 12 11  1  0  0  0  0
 13 15  1  0  0  0  0
 15 14  1  0  0  0  0
 16 13  1  0  0  0  0
 17 16  1  0  0  0  0
 18 17  3  0  0  0  0
M  END
>  <MODEL>
4

>  <REMARK>
  Name = ZINC45060882
                            x       y       z     vdW  Elec       q    Type
                         _______ _______ _______ _____ _____    ______ ____

>  <TORSDO>
F 6

>  <minimizedAffinity>
-5.8116702411541432

$$$$
ZINC45060882
 OpenBabel10211214593D

 18 18  0  0  1  0  0  0  0  0999 V2000
   51.2190   54.5090   20.1790 C   0  0  0  0  0  0  0  0  0  0  0  0
   50.0270   54.9560   20.6200 N   0  0  0  0  0  0  0  0  0  0  0  0
   49.4720   54.3880   21.1770 H   0  0  0  0  0  0  0  0  0  0  0  0
   51.9130   55.2190   19.4820 O   0  0  0  0  0  0  0  0  0  0  0  0
   49.5680   56.2990   20.2560 C   0  0  0  0  0  0  0  0  0  0  0  0
   49.1800   57.0650   21.5220 C   0  0  0  0  0  0  0  0  0  0  0  0
   48.7010   58.4690   21.1420 C   0  0  0  0  0  0  0  0  0  0  0  0
   47.4860   58.3600   20.2200 C   0  0  0  0  0  0  0  0  0  0  0  0
   47.8730   57.5920   18.9540 C   0  0  0  0  0  0  0  0  0  0  0  0
   48.3530   56.1900   19.3330 C   0  0  0  0  0  0  0  0  0  0  0  0
   51.6910   53.1270   20.5520 C   0  0  1  0  0  0  0  0  0  0  0  0
   51.6820   52.9790   22.0750 C   0  0  0  0  0  0  0  0  0  0  0  0
   50.7940   52.1270   19.9570 N   0  0  0  0  0  0  0  0  0  0  0  0
   49.5430   52.1230   17.8520 C   0  0  0  0  0  0  0  0  0  0  0  0
   50.9310   52.1020   18.4940 C   0  0  0  0  0  0  0  0  0  0  0  0
   51.0340   50.7970   20.5310 C   0  0  0  0  0  0  0  0  0  0  0  0
   52.3140   50.2680   20.0290 C   0  0  0  0  0  0  0  0  0  0  0  0
   53.2990   49.8590   19.6420 N   0  0  0  0  0  0  0  0  0  0  0  0
  1 11  1  0  0  0  0
  1  2  1  0  0  0  0
  2  3  1  0  0  0  0
  4  1  2  0  0  0  0
  5  2  1  0  0  0  0
  5  6  1  0  0  0  0
  7  6  1  0  0  0  0
  8  7  1  0  0  0  0
  9 10  1  0  0  0  0
  9  8  1  0  0  0  0
 10  5  1  0  0  0  0
 11 13  1  1  0  0  0
 11 12  1  0  0  0  0
 13 16  1  0  0  0  0
 14 15  1  0  0  0  0
 15 13  1  0  0  0  0
 17 16  1  0  0  0  0
 18 17  3  0  0  0  0
M  END
>  <MODEL>
5

>  <REMARK>
  Name = ZINC45060882
                            x       y       z     vdW  Elec       q    Type
                         _______ _______ _______ _____ _____    ______ ____

>  <TORSDO>
F 6

>  <minimizedAffinity>
-5.7739298322679673

$$$$
ZINC45060882
 OpenBabel10211214593D

 18 18  0  0  1  0  0  0  0  0999 V2000
   50.6480   50.9990   18.0670 C   0  0  0  0  0  0  0  0  0  0  0  0
   50.1700   51.7870   19.0500 N   0  0  0  0  0  0  0  0  0  0  0  0
   49.2230   51.7810   19.2580 H   0  0  0  0  0  0  0  0  0  0  0  0
   51.8320   51.0060   17.8050 O   0  0  0  0  0  0  0  0  0  0  0  0
   51.0820   52.6520   19.8030 C   0  0  0  0  0  0  0  0  0  0  0  0
   50.6880   52.6420   21.2820 C   0  0  0  0  0  0  0  0  0  0  0  0
   51.6410   53.5460   22.0690 C   0  0  0  0  0  0  0  0  0  0  0  0
   51.5520   54.9730   21.5270 C   0  0  0  0  0  0  0  0  0  0  0  0
   51.9440   54.9840   20.0480 C   0  0  0  0  0  0  0  0  0  0  0  0
   50.9930   54.0800   19.2620 C   0  0  0  0  0  0  0  0  0  0  0  0
   49.7100   50.1100   17.2910 C   0  0  1  0  0  0  0  0  0  0  0  0
   48.5190   49.7320   18.1730 C   0  0  0  0  0  0  0  0  0  0  0  0
   49.2310   50.8240   16.1000 N   0  0  0  0  0  0  0  0  0  0  0  0
   50.6790   49.6890   14.4840 C   0  0  0  0  0  0  0  0  0  0  0  0
   49.2360   49.9460   14.9220 C   0  0  0  0  0  0  0  0  0  0  0  0
   47.8960   51.3920   16.3280 C   0  0  0  0  0  0  0  0  0  0  0  0
   47.9830   52.8610   16.3460 C   0  0  0  0  0  0  0  0  0  0  0  0
   48.0510   53.9950   16.3590 N   0  0  0  0  0  0  0  0  0  0  0  0
  1  2  1  0  0  0  0
  2  3  1  0  0  0  0
  2  5  1  0  0  0  0
  4  1  2  0  0  0  0
  5  6  1  0  0  0  0
  6  7  1  0  0  0  0
  8  7  1  0  0  0  0
  9  8  1  0  0  0  0
 10  5  1  0  0  0  0
 10  9  1  0  0  0  0
 11 13  1  1  0  0  0
 11  1  1  0  0  0  0
 11 12  1  0  0  0  0
 13 16  1  0  0  0  0
 14 15  1  0  0  0  0
 15 13  1  0  0  0  0
 16 17  1  0  0  0  0
 17 18  3  0  0  0  0
M  END
>  <MODEL>
6

>  <REMARK>
  Name = ZINC45060882
                            x       y       z     vdW  Elec       q    Type
                         _______ _______ _______ _____ _____    ______ ____

>  <TORSDO>
F 6

>  <minimizedAffinity>
-5.7594163308166957

$$$$
ZINC45060882
 OpenBabel10211214593D

 18 18  0  0  1  0  0  0  0  0999 V2000
   48.7710   54.3870   18.2850 C   0  0  0  0  0  0  0  0  0  0  0  0
   48.8140   54.7270   19.5880 N   0  0  0  0  0  0  0  0  0  0  0  0
   48.6970   54.0480   20.2700 H   0  0  0  0  0  0  0  0  0  0  0  0
   48.9180   55.2360   17.4310 O   0  0  0  0  0  0  0  0  0  0  0  0
   49.0390   56.1220   19.9740 C   0  0  0  0  0  0  0  0  0  0  0  0
   49.9360   56.1710   21.2120 C   0  0  0  0  0  0  0  0  0  0  0  0
   50.1700   57.6290   21.6150 C   0  0  0  0  0  0  0  0  0  0  0  0
   48.8280   58.2920   21.9310 C   0  0  0  0  0  0  0  0  0  0  0  0
   47.9300   58.2420   20.6940 C   0  0  0  0  0  0  0  0  0  0  0  0
   47.6970   56.7850   20.2900 C   0  0  0  0  0  0  0  0  0  0  0  0
   48.5400   52.9510   17.8880 C   0  0  1  0  0  0  0  0  0  0  0  0
   47.6810   52.9040   16.6230 C   0  0  0  0  0  0  0  0  0  0  0  0
   49.8320   52.3010   17.6280 N   0  0  0  0  0  0  0  0  0  0  0  0
   52.1110   52.4390   18.5120 C   0  0  0  0  0  0  0  0  0  0  0  0
   50.6370   52.2210   18.8550 C   0  0  0  0  0  0  0  0  0  0  0  0
   49.6420   50.9720   17.0340 C   0  0  0  0  0  0  0  0  0  0  0  0
   49.1760   50.0330   18.0680 C   0  0  0  0  0  0  0  0  0  0  0  0
   48.8170   49.3090   18.8640 N   0  0  0  0  0  0  0  0  0  0  0  0
  1  2  1  0  0  0  0
  2  5  1  0  0  0  0
  2  3  1  0  0  0  0
  4  1  2  0  0  0  0
  5 10  1  0  0  0  0
  5  6  1  0  0  0  0
  6  7  1  0  0  0  0
  7  8  1  0  0  0  0
  9  8  1  0  0  0  0
 10  9  1  0  0  0  0
 11 12  1  6  0  0  0
 11  1  1  0  0  0  0
 13 11  1  0  0  0  0
 13 15  1  0  0  0  0
 14 15  1  0  0  0  0
 16 13  1  0  0  0  0
 16 17  1  0  0  0  0
 17 18  3  0  0  0  0
M  END
>  <MODEL>
7

>  <REMARK>
  Name = ZINC45060882
                            x       y       z     vdW  Elec       q    Type
                         _______ _______ _______ _____ _____    ______ ____

>  <TORSDO>
F 6

>  <minimizedAffinity>
-5.6971103590898373

$$$$
ZINC45060882
 OpenBabel10211214593D

 18 18  0  0  1  0  0  0  0  0999 V2000
   49.8130   53.2240   18.4320 C   0  0  0  0  0  0  0  0  0  0  0  0
   49.3090   54.0240   19.3920 N   0  0  0  0  0  0  0  0  0  0  0  0
   48.3820   53.9340   19.6600 H   0  0  0  0  0  0  0  0  0  0  0  0
   50.9730   53.3370   18.0950 O   0  0  0  0  0  0  0  0  0  0  0  0
   50.1630   55.0310   20.0280 C   0  0  0  0  0  0  0  0  0  0  0  0
   50.8550   54.4160   21.2460 C   0  0  0  0  0  0  0  0  0  0  0  0
   51.7460   55.4670   21.9110 C   0  0  0  0  0  0  0  0  0  0  0  0
   50.8890   56.6530   22.3570 C   0  0  0  0  0  0  0  0  0  0  0  0
   50.1960   57.2680   21.1390 C   0  0  0  0  0  0  0  0  0  0  0  0
   49.3060   56.2170   20.4740 C   0  0  0  0  0  0  0  0  0  0  0  0
   48.9360   52.1890   17.7760 C   0  0  1  0  0  0  0  0  0  0  0  0
   48.1970   52.8200   16.5950 C   0  0  0  0  0  0  0  0  0  0  0  0
   49.7660   51.0760   17.2960 N   0  0  0  0  0  0  0  0  0  0  0  0
   48.7080   49.2840   18.5880 C   0  0  0  0  0  0  0  0  0  0  0  0
   49.9890   50.0890   18.3620 C   0  0  0  0  0  0  0  0  0  0  0  0
   49.1700   50.4470   16.1120 C   0  0  0  0  0  0  0  0  0  0  0  0
   50.2300   50.1110   15.1470 C   0  0  0  0  0  0  0  0  0  0  0  0
   51.0470   49.8520   14.4020 N   0  0  0  0  0  0  0  0  0  0  0  0
  1  2  1  0  0  0  0
  2  3  1  0  0  0  0
  2  5  1  0  0  0  0
  4  1  2  0  0  0  0
  5 10  1  0  0  0  0
  5  6  1  0  0  0  0
  6  7  1  0  0  0  0
  7  8  1  0  0  0  0
  9  8  1  0  0  0  0
 10  9  1  0  0  0  0
 11 12  1  6  0  0  0
 11  1  1  0  0  0  0
 13 11  1  0  0  0  0
 13 15  1  0  0  0  0
 15 14  1  0  0  0  0
 16 13  1  0  0  0  0
 17 16  1  0  0  0  0
 18 17  3  0  0  0  0
M  END
>  <MODEL>
8

>  <REMARK>
  Name = ZINC45060882
                            x       y       z     vdW  Elec       q    Type
                         _______ _______ _______ _____ _____    ______ ____

>  <TORSDO>
F 6

>  <minimizedAffinity>
-5.6812211015968535

$$$$
ZINC45060882
 OpenBabel10211214593D

 18 18  0  0  1  0  0  0  0  0999 V2000
   50.5820   49.5490   19.4040 C   0  0  0  0  0  0  0  0  0  0  0  0
   49.9100   49.3890   18.2480 N   0  0  0  0  0  0  0  0  0  0  0  0
   50.1370   49.9310   17.4760 H   0  0  0  0  0  0  0  0  0  0  0  0
   50.2980   48.8720   20.3700 O   0  0  0  0  0  0  0  0  0  0  0  0
   48.8350   48.3970   18.1560 C   0  0  0  0  0  0  0  0  0  0  0  0
   48.7340   47.8870   16.7170 C   0  0  0  0  0  0  0  0  0  0  0  0
   47.6120   46.8500   16.6220 C   0  0  0  0  0  0  0  0  0  0  0  0
   46.2860   47.4960   17.0290 C   0  0  0  0  0  0  0  0  0  0  0  0
   46.3880   48.0070   18.4670 C   0  0  0  0  0  0  0  0  0  0  0  0
   47.5100   49.0420   18.5630 C   0  0  0  0  0  0  0  0  0  0  0  0
   51.6870   50.5700   19.4990 C   0  0  1  0  0  0  0  0  0  0  0  0
   52.1900   50.9090   18.0950 C   0  0  0  0  0  0  0  0  0  0  0  0
   51.1740   51.7870   20.1420 N   0  0  0  0  0  0  0  0  0  0  0  0
   51.3910   53.3740   21.9950 C   0  0  0  0  0  0  0  0  0  0  0  0
   51.8620   52.0390   21.4160 C   0  0  0  0  0  0  0  0  0  0  0  0
   51.2870   52.9440   19.2460 C   0  0  0  0  0  0  0  0  0  0  0  0
   49.9610   53.2720   18.6960 C   0  0  0  0  0  0  0  0  0  0  0  0
   48.9390   53.5240   18.2710 N   0  0  0  0  0  0  0  0  0  0  0  0
  1 11  1  0  0  0  0
  1  4  2  0  0  0  0
  2  1  1  0  0  0  0
  3  2  1  0  0  0  0
  5  2  1  0  0  0  0
  5 10  1  0  0  0  0
  6  5  1  0  0  0  0
  7  6  1  0  0  0  0
  7  8  1  0  0  0  0
  8  9  1  0  0  0  0
  9 10  1  0  0  0  0
 11 12  1  6  0  0  0
 11 13  1  0  0  0  0
 13 15  1  0  0  0  0
 15 14  1  0  0  0  0
 16 13  1  0  0  0  0
 17 16  1  0  0  0  0
 18 17  3  0  0  0  0
M  END
>  <MODEL>
9

>  <REMARK>
  Name = ZINC45060882
                            x       y       z     vdW  Elec       q    Type
                         _______ _______ _______ _____ _____    ______ ____

>  <TORSDO>
F 6

>  <minimizedAffinity>
-5.6783362957115964

$$$$
ZINC36736000
 OpenBabel10211215003D

 21 22  0  0  1  0  0  0  0  0999 V2000
   49.6800   54.8990   18.9150 C   0  0  2  0  0  0  0  0  0  0  0  0
   48.8440   55.9680   18.2060 C   0  0  0  0  0  0  0  0  0  0  0  0
   48.7000   51.0480   17.3410 C   0  0  0  0  0  0  0  0  0  0  0  0
   49.8910   51.2360   18.0290 C   0  0  0  0  0  0  0  0  0  0  0  0
   50.2050   52.4820   18.5360 C   0  0  0  0  0  0  0  0  0  0  0  0
   49.3340   53.5410   18.3600 C   0  0  0  0  0  0  0  0  0  0  0  0
   48.1470   53.3570   17.6760 C   0  0  0  0  0  0  0  0  0  0  0  0
   47.8310   52.1140   17.1610 C   0  0  0  0  0  0  0  0  0  0  0  0
   48.3900   49.8240   16.8410 O   0  0  0  0  0  0  0  0  0  0  0  0
   47.2690   48.6800   18.6510 C   0  0  0  0  0  0  0  0  0  0  0  0
   48.4930   48.7130   17.7320 C   0  0  0  0  0  0  0  0  0  0  0  0
   49.3910   54.9270   20.3520 N   0  0  0  0  0  0  0  0  0  0  0  0
   48.5600   54.5540   20.6870 H   0  0  0  0  0  0  0  0  0  0  0  0
   50.3190   55.4950   21.2450 C   0  0  0  0  0  0  0  0  0  0  0  0
   50.3060   56.7710   21.7060 C   0  0  0  0  0  0  0  0  0  0  0  0
   49.2980   57.8350   21.3550 C   0  0  0  0  0  0  0  0  0  0  0  0
   51.3680   56.9150   22.5430 N   0  0  0  0  0  0  0  0  0  0  0  0
   52.0460   55.6910   22.5910 N   0  0  0  0  0  0  0  0  0  0  0  0
   51.6110   57.7240   23.0210 H   0  0  0  0  0  0  0  0  0  0  0  0
   51.4180   54.8410   21.8210 C   0  0  0  0  0  0  0  0  0  0  0  0
   51.8090   53.4040   21.5890 C   0  0  0  0  0  0  0  0  0  0  0  0
  1  2  1  1  0  0  0
  1 12  1  0  0  0  0
  3  4  1  0  0  0  0
  4  5  2  0  0  0  0
  6  5  1  0  0  0  0
  6  1  1  0  0  0  0
  7  6  2  0  0  0  0
  8  3  2  0  0  0  0
  8  7  1  0  0  0  0
  9  3  1  0  0  0  0
  9 11  1  0  0  0  0
 11 10  1  0  0  0  0
 12 13  1  0  0  0  0
 12 14  1  0  0  0  0
 14 15  2  0  0  0  0
 14 20  1  0  0  0  0
 15 17  1  0  0  0  0
 16 15  1  0  0  0  0
 17 18  1  0  0  0  0
 17 19  1  0  0  0  0
 20 18  2  0  0  0  0
 21 20  1  0  0  0  0
M  END
>  <MODEL>
1

>  <REMARK>
  Name = ZINC36736000
                            x       y       z     vdW  Elec       q    Type
                         _______ _______ _______ _____ _____    ______ ____

>  <TORSDO>
F 5

>  <minimizedAffinity>
-7.2795542634473041

$$$$
ZINC36736000
 OpenBabel10211215003D

 21 22  0  0  1  0  0  0  0  0999 V2000
   48.9160   55.3350   19.8370 C   0  0  2  0  0  0  0  0  0  0  0  0
   48.5410   54.2890   18.7840 C   0  0  0  0  0  0  0  0  0  0  0  0
   47.3330   59.1360   18.6930 C   0  0  0  0  0  0  0  0  0  0  0  0
   47.7010   58.2160   17.7220 C   0  0  0  0  0  0  0  0  0  0  0  0
   48.2120   56.9880   18.0950 C   0  0  0  0  0  0  0  0  0  0  0  0
   48.3580   56.6760   19.4340 C   0  0  0  0  0  0  0  0  0  0  0  0
   47.9920   57.5910   20.4040 C   0  0  0  0  0  0  0  0  0  0  0  0
   47.4860   58.8230   20.0360 C   0  0  0  0  0  0  0  0  0  0  0  0
   46.8310   60.3450   18.3290 O   0  0  0  0  0  0  0  0  0  0  0  0
   46.3890   62.3450   19.6110 C   0  0  0  0  0  0  0  0  0  0  0  0
   45.8930   60.9520   19.2180 C   0  0  0  0  0  0  0  0  0  0  0  0
   50.3750   55.4230   19.9400 N   0  0  0  0  0  0  0  0  0  0  0  0
   50.9130   55.5050   19.1370 H   0  0  0  0  0  0  0  0  0  0  0  0
   50.9950   55.3890   21.2030 C   0  0  0  0  0  0  0  0  0  0  0  0
   51.4700   56.4600   21.8880 C   0  0  0  0  0  0  0  0  0  0  0  0
   51.4310   57.8970   21.4350 C   0  0  0  0  0  0  0  0  0  0  0  0
   51.9880   56.0010   23.0590 N   0  0  0  0  0  0  0  0  0  0  0  0
   51.8230   54.6100   23.0850 N   0  0  0  0  0  0  0  0  0  0  0  0
   52.3990   56.5410   23.7520 H   0  0  0  0  0  0  0  0  0  0  0  0
   51.2250   54.2460   21.9800 C   0  0  0  0  0  0  0  0  0  0  0  0
   50.8500   52.8350   21.6040 C   0  0  0  0  0  0  0  0  0  0  0  0
  1  2  1  6  0  0  0
  1 12  1  0  0  0  0
  3  8  2  0  0  0  0
  4  5  2  0  0  0  0
  4  3  1  0  0  0  0
  5  6  1  0  0  0  0
  6  1  1  0  0  0  0
  6  7  2  0  0  0  0
  8  7  1  0  0  0  0
  9  3  1  0  0  0  0
  9 11  1  0  0  0  0
 11 10  1  0  0  0  0
 12 14  1  0  0  0  0
 13 12  1  0  0  0  0
 14 15  2  0  0  0  0
 14 20  1  0  0  0  0
 15 17  1  0  0  0  0
 16 15  1  0  0  0  0
 17 18  1  0  0  0  0
 17 19  1  0  0  0  0
 20 18  2  0  0  0  0
 21 20  1  0  0  0  0
M  END
>  <MODEL>
2

>  <REMARK>
  Name = ZINC36736000
                            x       y       z     vdW  Elec       q    Type
                         _______ _______ _______ _____ _____    ______ ____

>  <TORSDO>
F 5

>  <minimizedAffinity>
-7.1238478658267894

$$$$
ZINC36736000
 OpenBabel10211215003D

 21 22  0  0  1  0  0  0  0  0999 V2000
   49.3120   55.2290   18.5390 C   0  0  2  0  0  0  0  0  0  0  0  0
   48.6110   56.2390   17.6270 C   0  0  0  0  0  0  0  0  0  0  0  0
   48.6720   51.2770   17.0440 C   0  0  0  0  0  0  0  0  0  0  0  0
   49.5860   51.4950   18.0660 C   0  0  0  0  0  0  0  0  0  0  0  0
   49.7900   52.7730   18.5470 C   0  0  0  0  0  0  0  0  0  0  0  0
   49.0870   53.8360   18.0110 C   0  0  0  0  0  0  0  0  0  0  0  0
   48.1750   53.6220   16.9930 C   0  0  0  0  0  0  0  0  0  0  0  0
   47.9720   52.3460   16.5050 C   0  0  0  0  0  0  0  0  0  0  0  0
   48.4700   50.0200   16.5690 O   0  0  0  0  0  0  0  0  0  0  0  0
   46.8690   48.9920   18.0590 C   0  0  0  0  0  0  0  0  0  0  0  0
   47.1400   49.5050   16.6430 C   0  0  0  0  0  0  0  0  0  0  0  0
   48.7650   55.3330   19.8950 N   0  0  0  0  0  0  0  0  0  0  0  0
   48.0390   54.7520   20.1700 H   0  0  0  0  0  0  0  0  0  0  0  0
   49.2930   56.2770   20.7960 C   0  0  0  0  0  0  0  0  0  0  0  0
   50.4740   56.1760   21.4560 C   0  0  0  0  0  0  0  0  0  0  0  0
   51.4560   55.0360   21.3580 C   0  0  0  0  0  0  0  0  0  0  0  0
   50.6120   57.2900   22.2220 N   0  0  0  0  0  0  0  0  0  0  0  0
   49.4810   58.0920   22.0220 N   0  0  0  0  0  0  0  0  0  0  0  0
   51.3610   57.4940   22.8050 H   0  0  0  0  0  0  0  0  0  0  0  0
   48.6960   57.4890   21.1670 C   0  0  0  0  0  0  0  0  0  0  0  0
   47.3720   58.0090   20.6670 C   0  0  0  0  0  0  0  0  0  0  0  0
  1  2  1  6  0  0  0
  1 12  1  0  0  0  0
  3  4  2  0  0  0  0
  4  5  1  0  0  0  0
  6  1  1  0  0  0  0
  6  5  2  0  0  0  0
  7  6  1  0  0  0  0
  8  7  2  0  0  0  0
  8  3  1  0  0  0  0
  9 11  1  0  0  0  0
  9  3  1  0  0  0  0
 11 10  1  0  0  0  0
 12 13  1  0  0  0  0
 12 14  1  0  0  0  0
 14 20  1  0  0  0  0
 14 15  2  0  0  0  0
 15 17  1  0  0  0  0
 16 15  1  0  0  0  0
 17 19  1  0  0  0  0
 18 17  1  0  0  0  0
 20 18  2  0  0  0  0
 21 20  1  0  0  0  0
M  END
>  <MODEL>
3

>  <REMARK>
  Name = ZINC36736000
                            x       y       z     vdW  Elec       q    Type
                         _______ _______ _______ _____ _____    ______ ____

>  <TORSDO>
F 5

>  <minimizedAffinity>
-7.0453389352254847

$$$$
ZINC36736000
 OpenBabel10211215003D

 21 22  0  0  1  0  0  0  0  0999 V2000
   49.9380   54.5470   18.7980 C   0  0  2  0  0  0  0  0  0  0  0  0
   48.9630   55.0060   19.8830 C   0  0  0  0  0  0  0  0  0  0  0  0
   48.2220   51.2910   16.6240 C   0  0  0  0  0  0  0  0  0  0  0  0
   47.7380   52.5800   16.4450 C   0  0  0  0  0  0  0  0  0  0  0  0
   48.2940   53.6300   17.1490 C   0  0  0  0  0  0  0  0  0  0  0  0
   49.3330   53.3980   18.0320 C   0  0  0  0  0  0  0  0  0  0  0  0
   49.8180   52.1160   18.2120 C   0  0  0  0  0  0  0  0  0  0  0  0
   49.2610   51.0620   17.5150 C   0  0  0  0  0  0  0  0  0  0  0  0
   47.6760   50.2570   15.9330 O   0  0  0  0  0  0  0  0  0  0  0  0
   45.8690   49.5580   17.3770 C   0  0  0  0  0  0  0  0  0  0  0  0
   47.1800   49.1570   16.6970 C   0  0  0  0  0  0  0  0  0  0  0  0
   51.1920   54.1110   19.4200 N   0  0  0  0  0  0  0  0  0  0  0  0
   51.8340   53.5960   18.9080 H   0  0  0  0  0  0  0  0  0  0  0  0
   51.4630   54.4420   20.7620 C   0  0  0  0  0  0  0  0  0  0  0  0
   51.3130   53.6200   21.8320 C   0  0  0  0  0  0  0  0  0  0  0  0
   50.8270   52.1940   21.8000 C   0  0  0  0  0  0  0  0  0  0  0  0
   51.6820   54.3180   22.9390 N   0  0  0  0  0  0  0  0  0  0  0  0
   52.0660   55.6010   22.5290 N   0  0  0  0  0  0  0  0  0  0  0  0
   51.6780   53.9860   23.8510 H   0  0  0  0  0  0  0  0  0  0  0  0
   51.9410   55.6740   21.2290 C   0  0  0  0  0  0  0  0  0  0  0  0
   52.2540   56.8780   20.3780 C   0  0  0  0  0  0  0  0  0  0  0  0
  1  6  1  1  0  0  0
  1 12  1  0  0  0  0
  1  2  1  0  0  0  0
  3  8  1  0  0  0  0
  4  3  2  0  0  0  0
  4  5  1  0  0  0  0
  5  6  2  0  0  0  0
  6  7  1  0  0  0  0
  8  7  2  0  0  0  0
  9  3  1  0  0  0  0
  9 11  1  0  0  0  0
 11 10  1  0  0  0  0
 12 14  1  0  0  0  0
 13 12  1  0  0  0  0
 14 20  1  0  0  0  0
 14 15  2  0  0  0  0
 15 17  1  0  0  0  0
 16 15  1  0  0  0  0
 17 19  1  0  0  0  0
 18 17  1  0  0  0  0
 20 18  2  0  0  0  0
 21 20  1  0  0  0  0
M  END
>  <MODEL>
4

>  <REMARK>
  Name = ZINC36736000
                            x       y       z     vdW  Elec       q    Type
                         _______ _______ _______ _____ _____    ______ ____

>  <TORSDO>
F 5

>  <minimizedAffinity>
-6.9927910726932172

$$$$
ZINC36736000
 OpenBabel10211215003D

 21 22  0  0  1  0  0  0  0  0999 V2000
   48.9660   54.9770   19.4520 C   0  0  2  0  0  0  0  0  0  0  0  0
   48.6900   54.3030   18.1060 C   0  0  0  0  0  0  0  0  0  0  0  0
   47.4000   58.9530   19.4010 C   0  0  0  0  0  0  0  0  0  0  0  0
   47.7130   58.3130   18.2100 C   0  0  0  0  0  0  0  0  0  0  0  0
   48.2190   57.0290   18.2290 C   0  0  0  0  0  0  0  0  0  0  0  0
   48.4140   56.3790   19.4340 C   0  0  0  0  0  0  0  0  0  0  0  0
   48.1020   57.0130   20.6230 C   0  0  0  0  0  0  0  0  0  0  0  0
   47.6010   58.3010   20.6090 C   0  0  0  0  0  0  0  0  0  0  0  0
   46.9020   60.2170   19.3840 O   0  0  0  0  0  0  0  0  0  0  0  0
   47.1920   62.1210   17.9250 C   0  0  0  0  0  0  0  0  0  0  0  0
   46.5340   60.7520   18.1130 C   0  0  0  0  0  0  0  0  0  0  0  0
   50.4120   55.0240   19.6870 N   0  0  0  0  0  0  0  0  0  0  0  0
   51.0040   55.3670   18.9990 H   0  0  0  0  0  0  0  0  0  0  0  0
   50.9410   54.5710   20.9110 C   0  0  0  0  0  0  0  0  0  0  0  0
   51.1050   53.2750   21.2790 C   0  0  0  0  0  0  0  0  0  0  0  0
   50.7520   52.0630   20.4540 C   0  0  0  0  0  0  0  0  0  0  0  0
   51.6440   53.2680   22.5270 N   0  0  0  0  0  0  0  0  0  0  0  0
   51.8130   54.5990   22.9280 N   0  0  0  0  0  0  0  0  0  0  0  0
   51.8710   52.4810   23.0460 H   0  0  0  0  0  0  0  0  0  0  0  0
   51.3980   55.3770   21.9620 C   0  0  0  0  0  0  0  0  0  0  0  0
   51.4080   56.8840   21.9770 C   0  0  0  0  0  0  0  0  0  0  0  0
  1  2  1  6  0  0  0
  1 12  1  0  0  0  0
  3  8  2  0  0  0  0
  4  5  2  0  0  0  0
  4  3  1  0  0  0  0
  5  6  1  0  0  0  0
  6  1  1  0  0  0  0
  6  7  2  0  0  0  0
  8  7  1  0  0  0  0
  9  3  1  0  0  0  0
 10 11  1  0  0  0  0
 11  9  1  0  0  0  0
 12 14  1  0  0  0  0
 13 12  1  0  0  0  0
 14 15  2  0  0  0  0
 14 20  1  0  0  0  0
 15 17  1  0  0  0  0
 16 15  1  0  0  0  0
 17 18  1  0  0  0  0
 17 19  1  0  0  0  0
 20 21  1  0  0  0  0
 20 18  2  0  0  0  0
M  END
>  <MODEL>
5

>  <REMARK>
  Name = ZINC36736000
                            x       y       z     vdW  Elec       q    Type
                         _______ _______ _______ _____ _____    ______ ____

>  <TORSDO>
F 5

>  <minimizedAffinity>
-6.9327963048496626

$$$$
ZINC36736000
 OpenBabel10211215003D

 21 22  0  0  1  0  0  0  0  0999 V2000
   47.7710   49.7220   16.4480 C   0  0  2  0  0  0  0  0  0  0  0  0
   48.4490   50.1090   15.1310 C   0  0  0  0  0  0  0  0  0  0  0  0
   50.4690   50.3990   19.6930 C   0  0  0  0  0  0  0  0  0  0  0  0
   49.9500   49.1310   19.4730 C   0  0  0  0  0  0  0  0  0  0  0  0
   49.0780   48.9150   18.4230 C   0  0  0  0  0  0  0  0  0  0  0  0
   48.7220   49.9610   17.5920 C   0  0  0  0  0  0  0  0  0  0  0  0
   49.2380   51.2260   17.8080 C   0  0  0  0  0  0  0  0  0  0  0  0
   50.1060   51.4480   18.8600 C   0  0  0  0  0  0  0  0  0  0  0  0
   51.3260   50.6130   20.7240 O   0  0  0  0  0  0  0  0  0  0  0  0
   51.6380   52.6880   21.9240 C   0  0  0  0  0  0  0  0  0  0  0  0
   52.0540   51.8420   20.7180 C   0  0  0  0  0  0  0  0  0  0  0  0
   47.4000   48.3050   16.4080 N   0  0  0  0  0  0  0  0  0  0  0  0
   48.0900   47.6240   16.3880 H   0  0  0  0  0  0  0  0  0  0  0  0
   46.0420   47.9320   16.4000 C   0  0  0  0  0  0  0  0  0  0  0  0
   45.2910   47.6290   17.4880 C   0  0  0  0  0  0  0  0  0  0  0  0
   45.7570   47.6290   18.9220 C   0  0  0  0  0  0  0  0  0  0  0  0
   44.0400   47.3260   17.0510 N   0  0  0  0  0  0  0  0  0  0  0  0
   44.0320   47.4480   15.6550 N   0  0  0  0  0  0  0  0  0  0  0  0
   43.2870   47.0700   17.6070 H   0  0  0  0  0  0  0  0  0  0  0  0
   45.2260   47.8150   15.2670 C   0  0  0  0  0  0  0  0  0  0  0  0
   45.6510   48.0670   13.8430 C   0  0  0  0  0  0  0  0  0  0  0  0
  1  2  1  6  0  0  0
  1  6  1  0  0  0  0
  3  9  1  0  0  0  0
  4  3  1  0  0  0  0
  5  4  2  0  0  0  0
  6  7  2  0  0  0  0
  6  5  1  0  0  0  0
  7  8  1  0  0  0  0
  8  3  2  0  0  0  0
 11  9  1  0  0  0  0
 11 10  1  0  0  0  0
 12  1  1  0  0  0  0
 13 12  1  0  0  0  0
 14 12  1  0  0  0  0
 14 15  2  0  0  0  0
 15 16  1  0  0  0  0
 17 15  1  0  0  0  0
 17 19  1  0  0  0  0
 18 17  1  0  0  0  0
 20 18  2  0  0  0  0
 20 14  1  0  0  0  0
 21 20  1  0  0  0  0
M  END
>  <MODEL>
6

>  <REMARK>
  Name = ZINC36736000
                            x       y       z     vdW  Elec       q    Type
                         _______ _______ _______ _____ _____    ______ ____

>  <TORSDO>
F 5

>  <minimizedAffinity>
-6.9023723078258392

$$$$
ZINC36736000
 OpenBabel10211215003D

 21 22  0  0  1  0  0  0  0  0999 V2000
   48.9920   54.6140   19.3540 C   0  0  2  0  0  0  0  0  0  0  0  0
   48.6980   54.1520   17.9240 C   0  0  0  0  0  0  0  0  0  0  0  0
   47.8210   58.7000   19.8000 C   0  0  0  0  0  0  0  0  0  0  0  0
   48.2160   57.9650   20.9080 C   0  0  0  0  0  0  0  0  0  0  0  0
   48.5940   56.6440   20.7610 C   0  0  0  0  0  0  0  0  0  0  0  0
   48.5780   56.0550   19.5110 C   0  0  0  0  0  0  0  0  0  0  0  0
   48.1850   56.7840   18.4040 C   0  0  0  0  0  0  0  0  0  0  0  0
   47.8000   58.1040   18.5470 C   0  0  0  0  0  0  0  0  0  0  0  0
   47.4480   59.9980   19.9420 O   0  0  0  0  0  0  0  0  0  0  0  0
   46.0950   61.9240   19.3910 C   0  0  0  0  0  0  0  0  0  0  0  0
   46.5540   60.5280   18.9630 C   0  0  0  0  0  0  0  0  0  0  0  0
   50.4270   54.4850   19.6230 N   0  0  0  0  0  0  0  0  0  0  0  0
   51.0620   55.0330   19.1370 H   0  0  0  0  0  0  0  0  0  0  0  0
   50.8820   53.5650   20.5870 C   0  0  0  0  0  0  0  0  0  0  0  0
   51.3860   53.8730   21.8090 C   0  0  0  0  0  0  0  0  0  0  0  0
   51.5610   55.2580   22.3780 C   0  0  0  0  0  0  0  0  0  0  0  0
   51.7050   52.7050   22.4270 N   0  0  0  0  0  0  0  0  0  0  0  0
   51.3850   51.6570   21.5550 N   0  0  0  0  0  0  0  0  0  0  0  0
   52.0860   52.6150   23.3150 H   0  0  0  0  0  0  0  0  0  0  0  0
   50.8880   52.1700   20.4590 C   0  0  0  0  0  0  0  0  0  0  0  0
   50.4080   51.3920   19.2600 C   0  0  0  0  0  0  0  0  0  0  0  0
  1  2  1  6  0  0  0
  1  6  1  0  0  0  0
  1 12  1  0  0  0  0
  3  9  1  0  0  0  0
  3  4  2  0  0  0  0
  5  4  1  0  0  0  0
  6  5  2  0  0  0  0
  7  8  2  0  0  0  0
  7  6  1  0  0  0  0
  8  3  1  0  0  0  0
 11 10  1  0  0  0  0
 11  9  1  0  0  0  0
 12 14  1  0  0  0  0
 13 12  1  0  0  0  0
 14 15  2  0  0  0  0
 15 16  1  0  0  0  0
 15 17  1  0  0  0  0
 17 19  1  0  0  0  0
 18 17  1  0  0  0  0
 20 14  1  0  0  0  0
 20 18  2  0  0  0  0
 21 20  1  0  0  0  0
M  END
>  <MODEL>
7

>  <REMARK>
  Name = ZINC36736000
                            x       y       z     vdW  Elec       q    Type
                         _______ _______ _______ _____ _____    ______ ____

>  <TORSDO>
F 5

>  <minimizedAffinity>
-6.8689746727190713

$$$$
ZINC36736000
 OpenBabel10211215003D

 21 22  0  0  1  0  0  0  0  0999 V2000
   49.7040   52.1100   17.6820 C   0  0  2  0  0  0  0  0  0  0  0  0
   48.9650   53.4500   17.6540 C   0  0  0  0  0  0  0  0  0  0  0  0
   47.3860   49.1620   15.6320 C   0  0  0  0  0  0  0  0  0  0  0  0
   46.8260   49.8860   16.6750 C   0  0  0  0  0  0  0  0  0  0  0  0
   47.5770   50.8380   17.3360 C   0  0  0  0  0  0  0  0  0  0  0  0
   48.8870   51.0700   16.9590 C   0  0  0  0  0  0  0  0  0  0  0  0
   49.4480   50.3510   15.9200 C   0  0  0  0  0  0  0  0  0  0  0  0
   48.7020   49.3930   15.2600 C   0  0  0  0  0  0  0  0  0  0  0  0
   46.6490   48.2250   14.9810 O   0  0  0  0  0  0  0  0  0  0  0  0
   46.8630   46.3450   16.4860 C   0  0  0  0  0  0  0  0  0  0  0  0
   45.9030   47.3110   15.7870 C   0  0  0  0  0  0  0  0  0  0  0  0
   49.9060   51.6930   19.0730 N   0  0  0  0  0  0  0  0  0  0  0  0
   49.3040   52.0080   19.7660 H   0  0  0  0  0  0  0  0  0  0  0  0
   50.9730   50.8360   19.4030 C   0  0  0  0  0  0  0  0  0  0  0  0
   50.8820   49.5030   19.6390 C   0  0  0  0  0  0  0  0  0  0  0  0
   49.6240   48.6730   19.5970 C   0  0  0  0  0  0  0  0  0  0  0  0
   52.1330   49.0510   19.9210 N   0  0  0  0  0  0  0  0  0  0  0  0
   53.0090   50.1410   19.8540 N   0  0  0  0  0  0  0  0  0  0  0  0
   52.3750   48.1350   20.1310 H   0  0  0  0  0  0  0  0  0  0  0  0
   52.3170   51.2060   19.5400 C   0  0  0  0  0  0  0  0  0  0  0  0
   52.8720   52.5960   19.3580 C   0  0  0  0  0  0  0  0  0  0  0  0
  1  6  1  1  0  0  0
  1 12  1  0  0  0  0
  2  1  1  0  0  0  0
  3  4  1  0  0  0  0
  4  5  2  0  0  0  0
  6  5  1  0  0  0  0
  7  6  2  0  0  0  0
  8  3  2  0  0  0  0
  8  7  1  0  0  0  0
  9  3  1  0  0  0  0
  9 11  1  0  0  0  0
 11 10  1  0  0  0  0
 12 14  1  0  0  0  0
 12 13  1  0  0  0  0
 14 20  1  0  0  0  0
 14 15  2  0  0  0  0
 15 17  1  0  0  0  0
 16 15  1  0  0  0  0
 17 19  1  0  0  0  0
 18 17  1  0  0  0  0
 20 18  2  0  0  0  0
 21 20  1  0  0  0  0
M  END
>  <MODEL>
8

>  <REMARK>
  Name = ZINC36736000
                            x       y       z     vdW  Elec       q    Type
                         _______ _______ _______ _____ _____    ______ ____

>  <TORSDO>
F 5

>  <minimizedAffinity>
-6.7663051114576112

$$$$
ZINC36736000
 OpenBabel10211215003D

 21 22  0  0  1  0  0  0  0  0999 V2000
   50.0150   50.8260   17.3260 C   0  0  2  0  0  0  0  0  0  0  0  0
   49.4500   51.9850   18.1500 C   0  0  0  0  0  0  0  0  0  0  0  0
   47.1320   47.6760   17.1340 C   0  0  0  0  0  0  0  0  0  0  0  0
   48.1840   47.7130   16.2290 C   0  0  0  0  0  0  0  0  0  0  0  0
   49.1140   48.7320   16.2930 C   0  0  0  0  0  0  0  0  0  0  0  0
   48.9980   49.7150   17.2580 C   0  0  0  0  0  0  0  0  0  0  0  0
   47.9520   49.6810   18.1620 C   0  0  0  0  0  0  0  0  0  0  0  0
   47.0160   48.6670   18.0970 C   0  0  0  0  0  0  0  0  0  0  0  0
   46.2160   46.6750   17.0720 O   0  0  0  0  0  0  0  0  0  0  0  0
   44.5440   47.6110   15.5990 C   0  0  0  0  0  0  0  0  0  0  0  0
   44.8420   47.0570   16.9940 C   0  0  0  0  0  0  0  0  0  0  0  0
   51.2400   50.3280   17.9590 N   0  0  0  0  0  0  0  0  0  0  0  0
   51.8340   49.7390   17.4690 H   0  0  0  0  0  0  0  0  0  0  0  0
   51.5540   50.7060   19.2780 C   0  0  0  0  0  0  0  0  0  0  0  0
   51.2260   50.0220   20.4040 C   0  0  0  0  0  0  0  0  0  0  0  0
   50.4620   48.7250   20.4680 C   0  0  0  0  0  0  0  0  0  0  0  0
   51.7130   50.7210   21.4640 N   0  0  0  0  0  0  0  0  0  0  0  0
   52.3550   51.8630   20.9680 N   0  0  0  0  0  0  0  0  0  0  0  0
   51.6300   50.4720   22.3980 H   0  0  0  0  0  0  0  0  0  0  0  0
   52.2640   51.8510   19.6630 C   0  0  0  0  0  0  0  0  0  0  0  0
   52.8270   52.8940   18.7300 C   0  0  0  0  0  0  0  0  0  0  0  0
  1  6  1  1  0  0  0
  1 12  1  0  0  0  0
  1  2  1  0  0  0  0
  3  8  2  0  0  0  0
  4  5  2  0  0  0  0
  4  3  1  0  0  0  0
  5  6  1  0  0  0  0
  6  7  2  0  0  0  0
  8  7  1  0  0  0  0
  9  3  1  0  0  0  0
 10 11  1  0  0  0  0
 11  9  1  0  0  0  0
 12 14  1  0  0  0  0
 13 12  1  0  0  0  0
 14 20  1  0  0  0  0
 14 15  2  0  0  0  0
 15 16  1  0  0  0  0
 15 17  1  0  0  0  0
 17 19  1  0  0  0  0
 18 17  1  0  0  0  0
 20 18  2  0  0  0  0
 21 20  1  0  0  0  0
M  END
>  <MODEL>
9

>  <REMARK>
  Name = ZINC36736000
                            x       y       z     vdW  Elec       q    Type
                         _______ _______ _______ _____ _____    ______ ____

>  <TORSDO>
F 5

>  <minimizedAffinity>
-6.7644758821432216

$$$$
ZINC50507725
 OpenBabel10211215013D

 21 22  0  0  1  0  0  0  0  0999 V2000
   50.5200   53.9250   21.2940 N   0  0  0  0  0  0  0  0  0  0  0  0
   50.5800   53.6840   22.2710 H   0  0  0  0  0  0  0  0  0  0  0  0
   49.5580   53.8670   20.9930 H   0  0  0  0  0  0  0  0  0  0  0  0
   51.3360   52.9900   20.5070 C   0  0  1  0  0  0  0  0  0  0  0  0
   51.8760   51.8900   21.4230 C   0  0  0  0  0  0  0  0  0  0  0  0
   48.2390   52.5290   16.5520 C   0  0  0  0  0  0  0  0  0  0  0  0
   49.1410   52.1720   17.7050 C   0  0  0  0  0  0  0  0  0  0  0  0
   49.4520   50.9250   18.1040 C   0  0  0  0  0  0  0  0  0  0  0  0
   50.3220   51.0550   19.2120 C   0  0  0  0  0  0  0  0  0  0  0  0
   50.4890   52.3720   19.4240 C   0  0  0  0  0  0  0  0  0  0  0  0
   49.7760   53.0450   18.5050 O   0  0  0  0  0  0  0  0  0  0  0  0
   51.0140   55.2940   21.0950 C   0  0  1  0  0  0  0  0  0  0  0  0
   49.8450   56.2400   21.0010 C   0  0  0  0  0  0  0  0  0  0  0  0
   48.7990   55.9650   20.1400 C   0  0  0  0  0  0  0  0  0  0  0  0
   47.7270   56.8320   20.0530 C   0  0  0  0  0  0  0  0  0  0  0  0
   47.7000   57.9780   20.8280 C   0  0  0  0  0  0  0  0  0  0  0  0
   48.7450   58.2530   21.6900 C   0  0  0  0  0  0  0  0  0  0  0  0
   49.8160   57.3820   21.7790 C   0  0  0  0  0  0  0  0  0  0  0  0
   51.8850   55.6880   22.2590 C   0  0  0  0  0  0  0  0  0  0  0  0
   52.8010   56.4760   22.0950 O   0  0  0  0  0  0  0  0  0  0  0  0
   51.6760   55.2160   23.3640 O   0  0  0  0  0  0  0  0  0  0  0  0
  1  2  1  0  0  0  0
  3  1  1  0  0  0  0
  4 10  1  1  0  0  0
  4  1  1  0  0  0  0
  4  5  1  0  0  0  0
  6  7  1  0  0  0  0
  7  8  2  0  0  0  0
  7 11  1  0  0  0  0
  8  9  1  0  0  0  0
  9 10  2  0  0  0  0
 11 10  1  0  0  0  0
 12 13  1  1  0  0  0
 12  1  1  0  0  0  0
 12 19  1  0  0  0  0
 13 18  2  0  0  0  0
 14 13  1  0  0  0  0
 15 14  2  0  0  0  0
 15 16  1  0  0  0  0
 16 17  2  0  0  0  0
 17 18  1  0  0  0  0
 19 21  1  0  0  0  0
 20 19  2  0  0  0  0
M  END
>  <MODEL>
1

>  <REMARK>
  Name = ZINC50507725
                            x       y       z     vdW  Elec       q    Type
                         _______ _______ _______ _____ _____    ______ ____

>  <TORSDO>
F 5

>  <minimizedAffinity>
-8.0796704885236341

$$$$
ZINC50507725
 OpenBabel10211215013D

 21 22  0  0  1  0  0  0  0  0999 V2000
   50.4690   53.8750   21.2070 N   0  0  0  0  0  0  0  0  0  0  0  0
   50.5550   53.6690   22.1910 H   0  0  0  0  0  0  0  0  0  0  0  0
   49.4990   53.8190   20.9360 H   0  0  0  0  0  0  0  0  0  0  0  0
   51.2510   52.9020   20.4320 C   0  0  1  0  0  0  0  0  0  0  0  0
   51.7370   51.7860   21.3590 C   0  0  0  0  0  0  0  0  0  0  0  0
   48.0970   52.5500   16.5120 C   0  0  0  0  0  0  0  0  0  0  0  0
   49.0150   52.1610   17.6420 C   0  0  0  0  0  0  0  0  0  0  0  0
   49.3290   50.9040   18.0040 C   0  0  0  0  0  0  0  0  0  0  0  0
   50.2140   51.0040   19.1020 C   0  0  0  0  0  0  0  0  0  0  0  0
   50.3870   52.3140   19.3460 C   0  0  0  0  0  0  0  0  0  0  0  0
   49.6630   53.0120   18.4560 O   0  0  0  0  0  0  0  0  0  0  0  0
   50.9730   55.2300   20.9450 C   0  0  1  0  0  0  0  0  0  0  0  0
   49.8200   56.1990   20.9190 C   0  0  0  0  0  0  0  0  0  0  0  0
   49.8390   57.3200   21.7260 C   0  0  0  0  0  0  0  0  0  0  0  0
   48.7820   58.2100   21.7010 C   0  0  0  0  0  0  0  0  0  0  0  0
   47.7020   57.9760   20.8690 C   0  0  0  0  0  0  0  0  0  0  0  0
   47.6820   56.8550   20.0610 C   0  0  0  0  0  0  0  0  0  0  0  0
   48.7430   55.9680   20.0830 C   0  0  0  0  0  0  0  0  0  0  0  0
   51.9360   55.6270   22.0330 C   0  0  0  0  0  0  0  0  0  0  0  0
   52.8270   56.4260   21.7980 O   0  0  0  0  0  0  0  0  0  0  0  0
   51.8270   55.1470   23.1490 O   0  0  0  0  0  0  0  0  0  0  0  0
  1  2  1  0  0  0  0
  3  1  1  0  0  0  0
  4 10  1  1  0  0  0
  4  1  1  0  0  0  0
  4  5  1  0  0  0  0
  6  7  1  0  0  0  0
  7  8  2  0  0  0  0
  7 11  1  0  0  0  0
  8  9  1  0  0  0  0
  9 10  2  0  0  0  0
 11 10  1  0  0  0  0
 12 13  1  1  0  0  0
 12  1  1  0  0  0  0
 12 19  1  0  0  0  0
 13 14  2  0  0  0  0
 15 14  1  0  0  0  0
 16 15  2  0  0  0  0
 17 18  2  0  0  0  0
 17 16  1  0  0  0  0
 18 13  1  0  0  0  0
 19 21  1  0  0  0  0
 20 19  2  0  0  0  0
M  END
>  <MODEL>
2

>  <REMARK>
  Name = ZINC50507725
                            x       y       z     vdW  Elec       q    Type
                         _______ _______ _______ _____ _____    ______ ____

>  <TORSDO>
F 5

>  <minimizedAffinity>
-8.033873125818916

$$$$
ZINC50507725
 OpenBabel10211215013D

 21 22  0  0  1  0  0  0  0  0999 V2000
   51.0210   53.3990   19.2860 N   0  0  0  0  0  0  0  0  0  0  0  0
   51.7980   54.0330   19.1730 H   0  0  0  0  0  0  0  0  0  0  0  0
   50.3480   53.5600   18.5510 H   0  0  0  0  0  0  0  0  0  0  0  0
   50.3870   53.6310   20.5900 C   0  0  1  0  0  0  0  0  0  0  0  0
   51.4660   53.7530   21.6680 C   0  0  0  0  0  0  0  0  0  0  0  0
   48.7670   58.2970   21.6140 C   0  0  0  0  0  0  0  0  0  0  0  0
   48.8760   56.9320   20.9840 C   0  0  0  0  0  0  0  0  0  0  0  0
   48.0840   56.4490   20.0110 C   0  0  0  0  0  0  0  0  0  0  0  0
   48.5390   55.1420   19.7230 C   0  0  0  0  0  0  0  0  0  0  0  0
   49.5810   54.9030   20.5390 C   0  0  0  0  0  0  0  0  0  0  0  0
   49.7850   55.9930   21.2970 O   0  0  0  0  0  0  0  0  0  0  0  0
   51.5040   52.0140   19.2140 C   0  0  1  0  0  0  0  0  0  0  0  0
   50.3600   51.1020   18.8540 C   0  0  0  0  0  0  0  0  0  0  0  0
   49.4440   51.4870   17.8930 C   0  0  0  0  0  0  0  0  0  0  0  0
   48.3940   50.6510   17.5620 C   0  0  0  0  0  0  0  0  0  0  0  0
   48.2600   49.4280   18.1930 C   0  0  0  0  0  0  0  0  0  0  0  0
   49.1770   49.0410   19.1530 C   0  0  0  0  0  0  0  0  0  0  0  0
   50.2290   49.8770   19.4810 C   0  0  0  0  0  0  0  0  0  0  0  0
   52.5780   51.9090   18.1630 C   0  0  0  0  0  0  0  0  0  0  0  0
   52.7770   50.8480   17.5980 O   0  0  0  0  0  0  0  0  0  0  0  0
   53.2510   52.8870   17.8790 O   0  0  0  0  0  0  0  0  0  0  0  0
  2  1  1  0  0  0  0
  3  1  1  0  0  0  0
  4  1  1  6  0  0  0
  4  5  1  0  0  0  0
  7 11  1  0  0  0  0
  7  6  1  0  0  0  0
  8  7  2  0  0  0  0
  9  8  1  0  0  0  0
  9 10  2  0  0  0  0
 10  4  1  0  0  0  0
 10 11  1  0  0  0  0
 12 19  1  6  0  0  0
 12  1  1  0  0  0  0
 13 12  1  0  0  0  0
 13 18  2  0  0  0  0
 14 13  1  0  0  0  0
 15 14  2  0  0  0  0
 15 16  1  0  0  0  0
 16 17  2  0  0  0  0
 17 18  1  0  0  0  0
 20 19  2  0  0  0  0
 21 19  1  0  0  0  0
M  END
>  <MODEL>
3

>  <REMARK>
  Name = ZINC50507725
                            x       y       z     vdW  Elec       q    Type
                         _______ _______ _______ _____ _____    ______ ____

>  <TORSDO>
F 5

>  <minimizedAffinity>
-7.775098059717469

$$$$
ZINC50507725
 OpenBabel10211215013D

 21 22  0  0  1  0  0  0  0  0999 V2000
   50.9770   53.3960   19.5010 N   0  0  0  0  0  0  0  0  0  0  0  0
   51.6970   54.0060   19.1450 H   0  0  0  0  0  0  0  0  0  0  0  0
   50.1190   53.5600   18.9960 H   0  0  0  0  0  0  0  0  0  0  0  0
   50.7650   53.6680   20.9290 C   0  0  1  0  0  0  0  0  0  0  0  0
   51.6570   52.7450   21.7610 C   0  0  0  0  0  0  0  0  0  0  0  0
   53.4580   57.8200   21.9070 C   0  0  0  0  0  0  0  0  0  0  0  0
   52.2840   56.9100   21.6490 C   0  0  0  0  0  0  0  0  0  0  0  0
   50.9920   57.2810   21.6240 C   0  0  0  0  0  0  0  0  0  0  0  0
   50.2370   56.1170   21.3480 C   0  0  0  0  0  0  0  0  0  0  0  0
   51.1140   55.1050   21.2230 C   0  0  0  0  0  0  0  0  0  0  0  0
   52.3530   55.5910   21.4010 O   0  0  0  0  0  0  0  0  0  0  0  0
   51.3890   51.9970   19.3240 C   0  0  1  0  0  0  0  0  0  0  0  0
   50.2150   51.1850   18.8400 C   0  0  0  0  0  0  0  0  0  0  0  0
   50.0110   49.9070   19.3260 C   0  0  0  0  0  0  0  0  0  0  0  0
   48.9340   49.1620   18.8820 C   0  0  0  0  0  0  0  0  0  0  0  0
   48.0610   49.6960   17.9510 C   0  0  0  0  0  0  0  0  0  0  0  0
   48.2650   50.9740   17.4660 C   0  0  0  0  0  0  0  0  0  0  0  0
   49.3400   51.7200   17.9140 C   0  0  0  0  0  0  0  0  0  0  0  0
   52.5010   51.9240   18.3110 C   0  0  0  0  0  0  0  0  0  0  0  0
   53.1580   52.9180   18.0540 O   0  0  0  0  0  0  0  0  0  0  0  0
   52.7420   50.8710   17.7450 O   0  0  0  0  0  0  0  0  0  0  0  0
  2  1  1  0  0  0  0
  3  1  1  0  0  0  0
  4  1  1  6  0  0  0
  4 10  1  0  0  0  0
  4  5  1  0  0  0  0
  7  6  1  0  0  0  0
  8  7  2  0  0  0  0
  9  8  1  0  0  0  0
 10  9  2  0  0  0  0
 10 11  1  0  0  0  0
 11  7  1  0  0  0  0
 12 19  1  6  0  0  0
 12  1  1  0  0  0  0
 13 12  1  0  0  0  0
 13 14  2  0  0  0  0
 15 14  1  0  0  0  0
 16 15  2  0  0  0  0
 17 18  2  0  0  0  0
 17 16  1  0  0  0  0
 18 13  1  0  0  0  0
 20 19  1  0  0  0  0
 21 19  2  0  0  0  0
M  END
>  <MODEL>
4

>  <REMARK>
  Name = ZINC50507725
                            x       y       z     vdW  Elec       q    Type
                         _______ _______ _______ _____ _____    ______ ____

>  <TORSDO>
F 5

>  <minimizedAffinity>
-7.5818772788183324

$$$$
ZINC50507725
 OpenBabel10211215013D

 21 22  0  0  1  0  0  0  0  0999 V2000
   51.1700   54.9000   19.2050 N   0  0  0  0  0  0  0  0  0  0  0  0
   51.9080   55.0640   18.5370 H   0  0  0  0  0  0  0  0  0  0  0  0
   50.3050   55.2800   18.8490 H   0  0  0  0  0  0  0  0  0  0  0  0
   51.5050   55.5550   20.4770 C   0  0  1  0  0  0  0  0  0  0  0  0
   52.7960   56.3590   20.3110 C   0  0  0  0  0  0  0  0  0  0  0  0
   47.0440   57.9090   20.5100 C   0  0  0  0  0  0  0  0  0  0  0  0
   48.4450   57.5030   20.8920 C   0  0  0  0  0  0  0  0  0  0  0  0
   49.1570   58.0040   21.9170 C   0  0  0  0  0  0  0  0  0  0  0  0
   50.4070   57.3430   21.9080 C   0  0  0  0  0  0  0  0  0  0  0  0
   50.3840   56.4790   20.8780 C   0  0  0  0  0  0  0  0  0  0  0  0
   49.1910   56.5750   20.2690 O   0  0  0  0  0  0  0  0  0  0  0  0
   51.0170   53.4560   19.4220 C   0  0  1  0  0  0  0  0  0  0  0  0
   49.9220   52.9270   18.5310 C   0  0  0  0  0  0  0  0  0  0  0  0
   49.7700   51.5650   18.3550 C   0  0  0  0  0  0  0  0  0  0  0  0
   48.7660   51.0800   17.5390 C   0  0  0  0  0  0  0  0  0  0  0  0
   47.9120   51.9590   16.8970 C   0  0  0  0  0  0  0  0  0  0  0  0
   48.0620   53.3210   17.0740 C   0  0  0  0  0  0  0  0  0  0  0  0
   49.0650   53.8060   17.8940 C   0  0  0  0  0  0  0  0  0  0  0  0
   52.3110   52.7580   19.0930 C   0  0  0  0  0  0  0  0  0  0  0  0
   52.7410   51.8900   19.8330 O   0  0  0  0  0  0  0  0  0  0  0  0
   52.9290   53.0630   18.0870 O   0  0  0  0  0  0  0  0  0  0  0  0
  1 12  1  0  0  0  0
  2  1  1  0  0  0  0
  3  1  1  0  0  0  0
  4  1  1  6  0  0  0
  4 10  1  0  0  0  0
  5  4  1  0  0  0  0
  6  7  1  0  0  0  0
  7  8  2  0  0  0  0
  9  8  1  0  0  0  0
 10  9  2  0  0  0  0
 11 10  1  0  0  0  0
 11  7  1  0  0  0  0
 12 13  1  6  0  0  0
 14 13  1  0  0  0  0
 15 14  2  0  0  0  0
 16 17  2  0  0  0  0
 16 15  1  0  0  0  0
 17 18  1  0  0  0  0
 18 13  2  0  0  0  0
 19 12  1  0  0  0  0
 19 20  1  0  0  0  0
 21 19  2  0  0  0  0
M  END
>  <MODEL>
5

>  <REMARK>
  Name = ZINC50507725
                            x       y       z     vdW  Elec       q    Type
                         _______ _______ _______ _____ _____    ______ ____

>  <TORSDO>
F 5

>  <minimizedAffinity>
-7.376713123539739

$$$$
ZINC50507725
 OpenBabel10211215013D

 21 22  0  0  1  0  0  0  0  0999 V2000
   50.6180   57.3140   20.2810 N   0  0  0  0  0  0  0  0  0  0  0  0
   50.9060   58.2690   20.1310 H   0  0  0  0  0  0  0  0  0  0  0  0
   50.7940   56.7760   19.4460 H   0  0  0  0  0  0  0  0  0  0  0  0
   49.1820   57.2790   20.5920 C   0  0  1  0  0  0  0  0  0  0  0  0
   48.9110   58.1210   21.8400 C   0  0  0  0  0  0  0  0  0  0  0  0
   47.0430   57.6950   16.0430 C   0  0  0  0  0  0  0  0  0  0  0  0
   47.4730   58.0180   17.4510 C   0  0  0  0  0  0  0  0  0  0  0  0
   47.1780   59.1440   18.1240 C   0  0  0  0  0  0  0  0  0  0  0  0
   47.7770   59.0270   19.4000 C   0  0  0  0  0  0  0  0  0  0  0  0
   48.4020   57.8370   19.4290 C   0  0  0  0  0  0  0  0  0  0  0  0
   48.2100   57.2270   18.2480 O   0  0  0  0  0  0  0  0  0  0  0  0
   51.3770   56.7430   21.4010 C   0  0  1  0  0  0  0  0  0  0  0  0
   51.6120   55.2760   21.1520 C   0  0  0  0  0  0  0  0  0  0  0  0
   51.4180   54.3610   22.1690 C   0  0  0  0  0  0  0  0  0  0  0  0
   51.6340   53.0150   21.9410 C   0  0  0  0  0  0  0  0  0  0  0  0
   52.0450   52.5840   20.6930 C   0  0  0  0  0  0  0  0  0  0  0  0
   52.2380   53.4980   19.6740 C   0  0  0  0  0  0  0  0  0  0  0  0
   52.0180   54.8440   19.9030 C   0  0  0  0  0  0  0  0  0  0  0  0
   52.7020   57.4500   21.5230 C   0  0  0  0  0  0  0  0  0  0  0  0
   53.5660   57.0030   22.2570 O   0  0  0  0  0  0  0  0  0  0  0  0
   52.9080   58.4720   20.8890 O   0  0  0  0  0  0  0  0  0  0  0  0
  1  4  1  0  0  0  0
  2  1  1  0  0  0  0
  3  1  1  0  0  0  0
  4 10  1  6  0  0  0
  4  5  1  0  0  0  0
  6  7  1  0  0  0  0
  7  8  2  0  0  0  0
  7 11  1  0  0  0  0
  8  9  1  0  0  0  0
  9 10  2  0  0  0  0
 11 10  1  0  0  0  0
 12  1  1  6  0  0  0
 12 19  1  0  0  0  0
 13 12  1  0  0  0  0
 13 14  2  0  0  0  0
 15 14  1  0  0  0  0
 16 15  2  0  0  0  0
 17 18  2  0  0  0  0
 17 16  1  0  0  0  0
 18 13  1  0  0  0  0
 19 20  1  0  0  0  0
 21 19  2  0  0  0  0
M  END
>  <MODEL>
6

>  <REMARK>
  Name = ZINC50507725
                            x       y       z     vdW  Elec       q    Type
                         _______ _______ _______ _____ _____    ______ ____

>  <TORSDO>
F 5

>  <minimizedAffinity>
-7.1956377514173893

$$$$
ZINC50507725
 OpenBabel10211215013D

 21 22  0  0  1  0  0  0  0  0999 V2000
   50.1830   53.4470   19.0040 N   0  0  0  0  0  0  0  0  0  0  0  0
   50.2310   52.4580   18.8110 H   0  0  0  0  0  0  0  0  0  0  0  0
   49.8370   53.5910   19.9410 H   0  0  0  0  0  0  0  0  0  0  0  0
   49.2750   54.0900   18.0440 C   0  0  1  0  0  0  0  0  0  0  0  0
   48.1390   53.1260   17.6930 C   0  0  0  0  0  0  0  0  0  0  0  0
   47.6730   58.8450   18.5630 C   0  0  0  0  0  0  0  0  0  0  0  0
   48.0050   57.4100   18.8820 C   0  0  0  0  0  0  0  0  0  0  0  0
   47.8130   56.8020   20.0670 C   0  0  0  0  0  0  0  0  0  0  0  0
   48.2610   55.4690   19.9200 C   0  0  0  0  0  0  0  0  0  0  0  0
   48.7010   55.3420   18.6560 C   0  0  0  0  0  0  0  0  0  0  0  0
   48.5390   56.5190   18.0290 O   0  0  0  0  0  0  0  0  0  0  0  0
   51.5230   54.0360   18.8800 C   0  0  1  0  0  0  0  0  0  0  0  0
   51.7900   54.9280   20.0650 C   0  0  0  0  0  0  0  0  0  0  0  0
   52.3970   56.1570   19.8830 C   0  0  0  0  0  0  0  0  0  0  0  0
   52.6420   56.9760   20.9690 C   0  0  0  0  0  0  0  0  0  0  0  0
   52.2800   56.5650   22.2390 C   0  0  0  0  0  0  0  0  0  0  0  0
   51.6720   55.3370   22.4220 C   0  0  0  0  0  0  0  0  0  0  0  0
   51.4240   54.5200   21.3340 C   0  0  0  0  0  0  0  0  0  0  0  0
   52.5530   52.9370   18.8380 C   0  0  0  0  0  0  0  0  0  0  0  0
   52.5040   52.0250   19.6450 O   0  0  0  0  0  0  0  0  0  0  0  0
   53.4370   52.9620   17.9980 O   0  0  0  0  0  0  0  0  0  0  0  0
  1  3  1  0  0  0  0
  2  1  1  0  0  0  0
  4  5  1  1  0  0  0
  4 10  1  0  0  0  0
  4  1  1  0  0  0  0
  6  7  1  0  0  0  0
  7  8  2  0  0  0  0
  9  8  1  0  0  0  0
 10  9  2  0  0  0  0
 11 10  1  0  0  0  0
 11  7  1  0  0  0  0
 12 19  1  1  0  0  0
 12  1  1  0  0  0  0
 12 13  1  0  0  0  0
 13 18  1  0  0  0  0
 14 13  2  0  0  0  0
 14 15  1  0  0  0  0
 15 16  2  0  0  0  0
 16 17  1  0  0  0  0
 18 17  2  0  0  0  0
 19 20  1  0  0  0  0
 21 19  2  0  0  0  0
M  END
>  <MODEL>
7

>  <REMARK>
  Name = ZINC50507725
                            x       y       z     vdW  Elec       q    Type
                         _______ _______ _______ _____ _____    ______ ____

>  <TORSDO>
F 5

>  <minimizedAffinity>
-7.1018859842426076

$$$$
ZINC50507725
 OpenBabel10211215013D

 21 22  0  0  1  0  0  0  0  0999 V2000
   51.0990   52.8060   19.3980 N   0  0  0  0  0  0  0  0  0  0  0  0
   52.0550   53.1020   19.2700 H   0  0  0  0  0  0  0  0  0  0  0  0
   50.5800   52.9740   18.5490 H   0  0  0  0  0  0  0  0  0  0  0  0
   50.4940   53.5670   20.5000 C   0  0  1  0  0  0  0  0  0  0  0  0
   51.5870   54.0060   21.4770 C   0  0  0  0  0  0  0  0  0  0  0  0
   48.2590   56.7260   17.2650 C   0  0  0  0  0  0  0  0  0  0  0  0
   48.8250   56.1570   18.5410 C   0  0  0  0  0  0  0  0  0  0  0  0
   48.8260   56.7650   19.7400 C   0  0  0  0  0  0  0  0  0  0  0  0
   49.4520   55.8780   20.6470 C   0  0  0  0  0  0  0  0  0  0  0  0
   49.7960   54.7830   19.9470 C   0  0  0  0  0  0  0  0  0  0  0  0
   49.4100   54.9540   18.6730 O   0  0  0  0  0  0  0  0  0  0  0  0
   51.0680   51.3730   19.7170 C   0  0  1  0  0  0  0  0  0  0  0  0
   49.9340   50.7170   18.9720 C   0  0  0  0  0  0  0  0  0  0  0  0
   49.5630   49.4220   19.2780 C   0  0  0  0  0  0  0  0  0  0  0  0
   48.5230   48.8200   18.5950 C   0  0  0  0  0  0  0  0  0  0  0  0
   47.8530   49.5150   17.6040 C   0  0  0  0  0  0  0  0  0  0  0  0
   48.2230   50.8110   17.2980 C   0  0  0  0  0  0  0  0  0  0  0  0
   49.2620   51.4140   17.9850 C   0  0  0  0  0  0  0  0  0  0  0  0
   52.3710   50.7380   19.3060 C   0  0  0  0  0  0  0  0  0  0  0  0
   52.7190   50.7620   18.1380 O   0  0  0  0  0  0  0  0  0  0  0  0
   53.0760   50.1980   20.1420 O   0  0  0  0  0  0  0  0  0  0  0  0
  1 12  1  0  0  0  0
  2  1  1  0  0  0  0
  3  1  1  0  0  0  0
  4  1  1  6  0  0  0
  4  5  1  0  0  0  0
  6  7  1  0  0  0  0
  7 11  1  0  0  0  0
  7  8  2  0  0  0  0
  8  9  1  0  0  0  0
 10  4  1  0  0  0  0
 10  9  2  0  0  0  0
 11 10  1  0  0  0  0
 12 13  1  6  0  0  0
 13 14  1  0  0  0  0
 15 14  2  0  0  0  0
 16 15  1  0  0  0  0
 17 16  2  0  0  0  0
 17 18  1  0  0  0  0
 18 13  2  0  0  0  0
 19 12  1  0  0  0  0
 19 21  1  0  0  0  0
 20 19  2  0  0  0  0
M  END
>  <MODEL>
8

>  <REMARK>
  Name = ZINC50507725
                            x       y       z     vdW  Elec       q    Type
                         _______ _______ _______ _____ _____    ______ ____

>  <TORSDO>
F 5

>  <minimizedAffinity>
-6.9748937333481305

$$$$
ZINC50507725
 OpenBabel10211215013D

 21 22  0  0  1  0  0  0  0  0999 V2000
   49.9940   56.5150   20.2710 N   0  0  0  0  0  0  0  0  0  0  0  0
   50.7710   57.1570   20.3140 H   0  0  0  0  0  0  0  0  0  0  0  0
   49.8250   56.2570   19.3100 H   0  0  0  0  0  0  0  0  0  0  0  0
   48.7940   57.1600   20.8220 C   0  0  1  0  0  0  0  0  0  0  0  0
   49.1900   58.0440   22.0070 C   0  0  0  0  0  0  0  0  0  0  0  0
   46.4990   61.0350   18.5500 C   0  0  0  0  0  0  0  0  0  0  0  0
   47.1460   59.6910   18.7700 C   0  0  0  0  0  0  0  0  0  0  0  0
   47.3180   58.7390   17.8360 C   0  0  0  0  0  0  0  0  0  0  0  0
   47.9630   57.6530   18.4740 C   0  0  0  0  0  0  0  0  0  0  0  0
   48.1450   58.0070   19.7580 C   0  0  0  0  0  0  0  0  0  0  0  0
   47.6530   59.2450   19.9320 O   0  0  0  0  0  0  0  0  0  0  0  0
   50.3080   55.3130   21.0540 C   0  0  1  0  0  0  0  0  0  0  0  0
   50.1990   54.0970   20.1710 C   0  0  0  0  0  0  0  0  0  0  0  0
   49.6600   54.2080   18.9030 C   0  0  0  0  0  0  0  0  0  0  0  0
   49.5600   53.0920   18.0930 C   0  0  0  0  0  0  0  0  0  0  0  0
   50.0000   51.8640   18.5510 C   0  0  0  0  0  0  0  0  0  0  0  0
   50.5400   51.7520   19.8190 C   0  0  0  0  0  0  0  0  0  0  0  0
   50.6430   52.8690   20.6270 C   0  0  0  0  0  0  0  0  0  0  0  0
   51.7100   55.4160   21.5940 C   0  0  0  0  0  0  0  0  0  0  0  0
   51.9280   55.1900   22.7720 O   0  0  0  0  0  0  0  0  0  0  0  0
   52.6270   55.7300   20.8530 O   0  0  0  0  0  0  0  0  0  0  0  0
  1  2  1  0  0  0  0
  1  4  1  0  0  0  0
  1 12  1  0  0  0  0
  3  1  1  0  0  0  0
  4 10  1  6  0  0  0
  4  5  1  0  0  0  0
  6  7  1  0  0  0  0
  7 11  1  0  0  0  0
  8  9  1  0  0  0  0
  8  7  2  0  0  0  0
  9 10  2  0  0  0  0
 10 11  1  0  0  0  0
 12 13  1  6  0  0  0
 12 19  1  0  0  0  0
 13 18  1  0  0  0  0
 14 13  2  0  0  0  0
 15 16  2  0  0  0  0
 15 14  1  0  0  0  0
 16 17  1  0  0  0  0
 17 18  2  0  0  0  0
 19 20  1  0  0  0  0
 21 19  2  0  0  0  0
M  END
>  <MODEL>
9

>  <REMARK>
  Name = ZINC50507725
                            x       y       z     vdW  Elec       q    Type
                         _______ _______ _______ _____ _____    ______ ____

>  <TORSDO>
F 5

>  <minimizedAffinity>
-6.9405893288915852

$$$$
ZINC44785356
 OpenBabel10211215023D

 22 22  0  0  1  0  0  0  0  0999 V2000
   51.2040   52.3930   18.9470 C   0  0  0  0  0  0  0  0  0  0  0  0
   51.6730   56.7680   20.6780 C   0  0  1  0  0  0  0  0  0  0  0  0
   50.1510   56.9330   20.7230 C   0  0  0  0  0  0  0  0  0  0  0  0
   49.4860   55.5560   20.6520 C   0  0  0  0  0  0  0  0  0  0  0  0
   49.8600   54.8810   19.3290 C   0  0  0  0  0  0  0  0  0  0  0  0
   51.3240   54.8490   19.2120 N   0  0  0  0  0  0  0  0  0  0  0  0
   51.9700   53.6900   18.9760 C   0  0  0  0  0  0  0  0  0  0  0  0
   53.1680   53.6900   18.7870 O   0  0  0  0  0  0  0  0  0  0  0  0
   52.0720   56.1060   19.3550 C   0  0  0  0  0  0  0  0  0  0  0  0
   53.8530   57.9680   20.9050 C   0  0  0  0  0  0  0  0  0  0  0  0
   52.3380   58.1430   20.7820 C   0  0  0  0  0  0  0  0  0  0  0  0
   52.1100   51.2840   18.4790 C   0  0  0  0  0  0  0  0  0  0  0  0
   52.4890   50.3680   19.3060 N   0  0  0  0  0  0  0  0  0  0  0  0
   52.5330   51.2480   17.1680 N   0  0  0  0  0  0  0  0  0  0  0  0
   53.0180   51.9990   16.7950 H   0  0  0  0  0  0  0  0  0  0  0  0
   52.3450   50.4700   16.6190 H   0  0  0  0  0  0  0  0  0  0  0  0
   53.3410   49.3250   18.8650 O   0  0  0  0  0  0  0  0  0  0  0  0
   52.9740   48.7970   18.1420 H   0  0  0  0  0  0  0  0  0  0  0  0
   50.0180   52.5220   17.9880 C   0  0  0  0  0  0  0  0  0  0  0  0
   49.1450   51.2690   18.0850 C   0  0  0  0  0  0  0  0  0  0  0  0
   50.6900   52.0730   20.3530 C   0  0  0  0  0  0  0  0  0  0  0  0
   51.7140   52.5420   21.3890 C   0  0  0  0  0  0  0  0  0  0  0  0
  1  7  1  0  0  0  0
  1 21  1  0  0  0  0
  2  3  1  0  0  0  0
  2 11  1  6  0  0  0
  4  3  1  0  0  0  0
  5  4  1  0  0  0  0
  6  5  1  0  0  0  0
  6  9  1  0  0  0  0
  7  6  1  0  0  0  0
  8  7  2  0  0  0  0
  9  2  1  0  0  0  0
 11 10  1  0  0  0  0
 12  1  1  0  0  0  0
 12 13  2  0  0  0  0
 14 12  1  0  0  0  0
 15 14  1  0  0  0  0
 16 14  1  0  0  0  0
 17 13  1  0  0  0  0
 18 17  1  0  0  0  0
 19 20  1  0  0  0  0
 19  1  1  0  0  0  0
 21 22  1  0  0  0  0
M  END
>  <MODEL>
1

>  <REMARK>
  Name = ZINC44785356
                            x       y       z     vdW  Elec       q    Type
                         _______ _______ _______ _____ _____    ______ ____

>  <TORSDO>
F 7

>  <minimizedAffinity>
-6.7631062059847489

$$$$
ZINC44785356
 OpenBabel10211215023D

 22 22  0  0  1  0  0  0  0  0999 V2000
   51.2630   55.5460   20.9490 C   0  0  0  0  0  0  0  0  0  0  0  0
   50.7560   51.1320   19.3320 C   0  0  1  0  0  0  0  0  0  0  0  0
   49.6450   51.5880   18.3820 C   0  0  0  0  0  0  0  0  0  0  0  0
   49.7140   53.1070   18.2070 C   0  0  0  0  0  0  0  0  0  0  0  0
   49.4980   53.7830   19.5650 C   0  0  0  0  0  0  0  0  0  0  0  0
   50.4710   53.2410   20.5230 N   0  0  0  0  0  0  0  0  0  0  0  0
   51.2740   54.0640   21.2260 C   0  0  0  0  0  0  0  0  0  0  0  0
   52.0070   53.6130   22.0820 O   0  0  0  0  0  0  0  0  0  0  0  0
   50.5520   51.7860   20.7020 C   0  0  0  0  0  0  0  0  0  0  0  0
   49.3230   49.1010   19.0680 C   0  0  0  0  0  0  0  0  0  0  0  0
   50.7070   49.6090   19.4790 C   0  0  0  0  0  0  0  0  0  0  0  0
   52.0770   56.2590   21.9980 C   0  0  0  0  0  0  0  0  0  0  0  0
   53.1500   56.8930   21.6620 N   0  0  0  0  0  0  0  0  0  0  0  0
   51.6740   56.2350   23.3150 N   0  0  0  0  0  0  0  0  0  0  0  0
   51.7140   57.0440   23.8490 H   0  0  0  0  0  0  0  0  0  0  0  0
   51.3530   55.4090   23.7090 H   0  0  0  0  0  0  0  0  0  0  0  0
   53.9140   57.5640   22.6480 O   0  0  0  0  0  0  0  0  0  0  0  0
   54.3000   56.9770   23.3120 H   0  0  0  0  0  0  0  0  0  0  0  0
   49.8230   56.0600   20.9830 C   0  0  0  0  0  0  0  0  0  0  0  0
   49.7720   57.4710   20.3950 C   0  0  0  0  0  0  0  0  0  0  0  0
   51.8670   55.8100   19.5680 C   0  0  0  0  0  0  0  0  0  0  0  0
   52.8500   54.6910   19.2180 C   0  0  0  0  0  0  0  0  0  0  0  0
  1 19  1  0  0  0  0
  1  7  1  0  0  0  0
  1 12  1  0  0  0  0
  2 11  1  1  0  0  0
  2  9  1  0  0  0  0
  3  2  1  0  0  0  0
  4  3  1  0  0  0  0
  4  5  1  0  0  0  0
  5  6  1  0  0  0  0
  6  9  1  0  0  0  0
  6  7  1  0  0  0  0
  7  8  2  0  0  0  0
 10 11  1  0  0  0  0
 12 14  1  0  0  0  0
 13 12  2  0  0  0  0
 13 17  1  0  0  0  0
 14 16  1  0  0  0  0
 14 15  1  0  0  0  0
 17 18  1  0  0  0  0
 20 19  1  0  0  0  0
 21  1  1  0  0  0  0
 22 21  1  0  0  0  0
M  END
>  <MODEL>
2

>  <REMARK>
  Name = ZINC44785356
                            x       y       z     vdW  Elec       q    Type
                         _______ _______ _______ _____ _____    ______ ____

>  <TORSDO>
F 7

>  <minimizedAffinity>
-6.7032626238353856

$$$$
ZINC44785356
 OpenBabel10211215023D

 22 22  0  0  1  0  0  0  0  0999 V2000
   51.3620   51.8740   19.4490 C   0  0  0  0  0  0  0  0  0  0  0  0
   49.2760   55.9110   20.7550 C   0  0  1  0  0  0  0  0  0  0  0  0
   48.6100   56.0320   19.3820 C   0  0  0  0  0  0  0  0  0  0  0  0
   48.6340   54.6730   18.6800 C   0  0  0  0  0  0  0  0  0  0  0  0
   50.0870   54.2340   18.4760 C   0  0  0  0  0  0  0  0  0  0  0  0
   50.7750   54.2550   19.7750 N   0  0  0  0  0  0  0  0  0  0  0  0
   51.4280   53.1650   20.2240 C   0  0  0  0  0  0  0  0  0  0  0  0
   52.0710   53.2230   21.2510 O   0  0  0  0  0  0  0  0  0  0  0  0
   50.7360   55.4860   20.5750 C   0  0  0  0  0  0  0  0  0  0  0  0
   47.9910   58.0410   20.9960 C   0  0  0  0  0  0  0  0  0  0  0  0
   49.2210   57.2640   21.4690 C   0  0  0  0  0  0  0  0  0  0  0  0
   52.0790   50.7920   20.2140 C   0  0  0  0  0  0  0  0  0  0  0  0
   53.0800   50.1760   19.6780 N   0  0  0  0  0  0  0  0  0  0  0  0
   51.6670   50.4600   21.4870 N   0  0  0  0  0  0  0  0  0  0  0  0
   50.7960   50.7450   21.8030 H   0  0  0  0  0  0  0  0  0  0  0  0
   52.2490   49.9420   22.0650 H   0  0  0  0  0  0  0  0  0  0  0  0
   53.7530   49.1590   20.3980 O   0  0  0  0  0  0  0  0  0  0  0  0
   53.6900   48.2840   19.9930 H   0  0  0  0  0  0  0  0  0  0  0  0
   52.0300   52.0630   18.0860 C   0  0  0  0  0  0  0  0  0  0  0  0
   53.2870   52.9190   18.2470 C   0  0  0  0  0  0  0  0  0  0  0  0
   49.8980   51.4750   19.2500 C   0  0  0  0  0  0  0  0  0  0  0  0
   49.7940   50.4790   18.0920 C   0  0  0  0  0  0  0  0  0  0  0  0
  1 12  1  0  0  0  0
  1  7  1  0  0  0  0
  2 11  1  6  0  0  0
  3  2  1  0  0  0  0
  4  3  1  0  0  0  0
  5  4  1  0  0  0  0
  5  6  1  0  0  0  0
  6  7  1  0  0  0  0
  6  9  1  0  0  0  0
  7  8  2  0  0  0  0
  9  2  1  0  0  0  0
 10 11  1  0  0  0  0
 12 14  1  0  0  0  0
 13 12  2  0  0  0  0
 13 17  1  0  0  0  0
 14 15  1  0  0  0  0
 14 16  1  0  0  0  0
 18 17  1  0  0  0  0
 19 20  1  0  0  0  0
 19  1  1  0  0  0  0
 21  1  1  0  0  0  0
 22 21  1  0  0  0  0
M  END
>  <MODEL>
3

>  <REMARK>
  Name = ZINC44785356
                            x       y       z     vdW  Elec       q    Type
                         _______ _______ _______ _____ _____    ______ ____

>  <TORSDO>
F 7

>  <minimizedAffinity>
-6.6336012031127769

$$$$
ZINC44785356
 OpenBabel10211215023D

 22 22  0  0  1  0  0  0  0  0999 V2000
   50.1150   50.6480   18.0010 C   0  0  0  0  0  0  0  0  0  0  0  0
   46.5860   48.7030   15.5260 C   0  0  1  0  0  0  0  0  0  0  0  0
   45.9810   48.1270   16.8090 C   0  0  0  0  0  0  0  0  0  0  0  0
   46.5530   48.8640   18.0210 C   0  0  0  0  0  0  0  0  0  0  0  0
   48.0710   48.6590   18.0680 C   0  0  0  0  0  0  0  0  0  0  0  0
   48.6450   49.0760   16.7820 N   0  0  0  0  0  0  0  0  0  0  0  0
   49.6490   49.9740   16.7360 C   0  0  0  0  0  0  0  0  0  0  0  0
   50.1780   50.2400   15.6770 O   0  0  0  0  0  0  0  0  0  0  0  0
   48.1040   48.4960   15.5450 C   0  0  0  0  0  0  0  0  0  0  0  0
   44.4870   47.7810   14.5320 C   0  0  0  0  0  0  0  0  0  0  0  0
   45.9880   47.9870   14.3130 C   0  0  0  0  0  0  0  0  0  0  0  0
   51.4660   51.2730   17.7680 C   0  0  0  0  0  0  0  0  0  0  0  0
   51.6830   52.4940   18.1310 N   0  0  0  0  0  0  0  0  0  0  0  0
   52.4690   50.5430   17.1690 N   0  0  0  0  0  0  0  0  0  0  0  0
   53.0560   49.9920   17.7100 H   0  0  0  0  0  0  0  0  0  0  0  0
   52.5890   50.5820   16.2070 H   0  0  0  0  0  0  0  0  0  0  0  0
   52.9540   53.0810   17.9120 O   0  0  0  0  0  0  0  0  0  0  0  0
   53.0420   53.5200   17.0550 H   0  0  0  0  0  0  0  0  0  0  0  0
   50.2190   49.6120   19.1220 C   0  0  0  0  0  0  0  0  0  0  0  0
   50.7300   50.2890   20.3950 C   0  0  0  0  0  0  0  0  0  0  0  0
   49.1120   51.7330   18.3990 C   0  0  0  0  0  0  0  0  0  0  0  0
   48.4430   52.2960   17.1430 C   0  0  0  0  0  0  0  0  0  0  0  0
  1 21  1  0  0  0  0
  1 19  1  0  0  0  0
  2 11  1  1  0  0  0
  2  9  1  0  0  0  0
  2  3  1  0  0  0  0
  3  4  1  0  0  0  0
  4  5  1  0  0  0  0
  6  5  1  0  0  0  0
  7  6  1  0  0  0  0
  7  1  1  0  0  0  0
  8  7  2  0  0  0  0
  9  6  1  0  0  0  0
 11 10  1  0  0  0  0
 12  1  1  0  0  0  0
 12 13  2  0  0  0  0
 14 15  1  0  0  0  0
 14 12  1  0  0  0  0
 16 14  1  0  0  0  0
 17 13  1  0  0  0  0
 18 17  1  0  0  0  0
 19 20  1  0  0  0  0
 22 21  1  0  0  0  0
M  END
>  <MODEL>
4

>  <REMARK>
  Name = ZINC44785356
                            x       y       z     vdW  Elec       q    Type
                         _______ _______ _______ _____ _____    ______ ____

>  <TORSDO>
F 7

>  <minimizedAffinity>
-6.5738529279826965

$$$$
ZINC44785356
 OpenBabel10211215023D

 22 22  0  0  1  0  0  0  0  0999 V2000
   51.0000   54.0980   20.5810 C   0  0  0  0  0  0  0  0  0  0  0  0
   48.6060   51.2390   17.6740 C   0  0  1  0  0  0  0  0  0  0  0  0
   49.9150   50.6400   17.1560 C   0  0  0  0  0  0  0  0  0  0  0  0
   51.0450   50.9510   18.1400 C   0  0  0  0  0  0  0  0  0  0  0  0
   51.2180   52.4690   18.2490 C   0  0  0  0  0  0  0  0  0  0  0  0
   49.9240   53.0680   18.6060 N   0  0  0  0  0  0  0  0  0  0  0  0
   49.8170   53.8840   19.6730 C   0  0  0  0  0  0  0  0  0  0  0  0
   48.7670   54.4470   19.9030 O   0  0  0  0  0  0  0  0  0  0  0  0
   48.7500   52.7610   17.7780 C   0  0  0  0  0  0  0  0  0  0  0  0
   46.5310   49.8830   17.3590 C   0  0  0  0  0  0  0  0  0  0  0  0
   47.4710   50.8990   16.7050 C   0  0  0  0  0  0  0  0  0  0  0  0
   51.3210   52.8140   21.3010 C   0  0  0  0  0  0  0  0  0  0  0  0
   52.4110   52.1770   21.0300 N   0  0  0  0  0  0  0  0  0  0  0  0
   50.4510   52.3210   22.2500 N   0  0  0  0  0  0  0  0  0  0  0  0
   49.4950   52.4270   22.1320 H   0  0  0  0  0  0  0  0  0  0  0  0
   50.7970   51.8680   23.0350 H   0  0  0  0  0  0  0  0  0  0  0  0
   52.7120   50.9700   21.7080 O   0  0  0  0  0  0  0  0  0  0  0  0
   51.9320   50.4590   21.9660 H   0  0  0  0  0  0  0  0  0  0  0  0
   50.6680   55.1870   21.6030 C   0  0  0  0  0  0  0  0  0  0  0  0
   51.8080   55.2990   22.6170 C   0  0  0  0  0  0  0  0  0  0  0  0
   52.2080   54.5320   19.7480 C   0  0  0  0  0  0  0  0  0  0  0  0
   51.9640   55.9340   19.1870 C   0  0  0  0  0  0  0  0  0  0  0  0
  1 12  1  0  0  0  0
  1 19  1  0  0  0  0
  2 11  1  6  0  0  0
  2  9  1  0  0  0  0
  3  2  1  0  0  0  0
  3  4  1  0  0  0  0
  4  5  1  0  0  0  0
  5  6  1  0  0  0  0
  6  7  1  0  0  0  0
  7  8  2  0  0  0  0
  7  1  1  0  0  0  0
  9  6  1  0  0  0  0
 11 10  1  0  0  0  0
 12 14  1  0  0  0  0
 13 12  2  0  0  0  0
 13 17  1  0  0  0  0
 14 16  1  0  0  0  0
 15 14  1  0  0  0  0
 17 18  1  0  0  0  0
 19 20  1  0  0  0  0
 21  1  1  0  0  0  0
 22 21  1  0  0  0  0
M  END
>  <MODEL>
5

>  <REMARK>
  Name = ZINC44785356
                            x       y       z     vdW  Elec       q    Type
                         _______ _______ _______ _____ _____    ______ ____

>  <TORSDO>
F 7

>  <minimizedAffinity>
-6.3606295420913641

$$$$
ZINC44785356
 OpenBabel10211215023D

 22 22  0  0  1  0  0  0  0  0999 V2000
   50.6580   51.1700   18.6900 C   0  0  0  0  0  0  0  0  0  0  0  0
   50.1330   55.6010   20.2540 C   0  0  1  0  0  0  0  0  0  0  0  0
   50.9170   55.2650   21.5240 C   0  0  0  0  0  0  0  0  0  0  0  0
   51.7200   53.9810   21.3050 C   0  0  0  0  0  0  0  0  0  0  0  0
   50.7570   52.8260   21.0110 C   0  0  0  0  0  0  0  0  0  0  0  0
   49.8990   53.2020   19.8790 N   0  0  0  0  0  0  0  0  0  0  0  0
   49.7990   52.4030   18.7980 C   0  0  0  0  0  0  0  0  0  0  0  0
   49.0160   52.6770   17.9120 O   0  0  0  0  0  0  0  0  0  0  0  0
   49.1520   54.4650   19.9470 C   0  0  0  0  0  0  0  0  0  0  0  0
   49.7260   57.5040   21.8220 C   0  0  0  0  0  0  0  0  0  0  0  0
   49.3560   56.9040   20.4640 C   0  0  0  0  0  0  0  0  0  0  0  0
   51.8690   51.4740   17.8470 C   0  0  0  0  0  0  0  0  0  0  0  0
   52.5630   52.5400   18.0730 N   0  0  0  0  0  0  0  0  0  0  0  0
   52.2380   50.6140   16.8360 N   0  0  0  0  0  0  0  0  0  0  0  0
   52.4050   50.9570   15.9450 H   0  0  0  0  0  0  0  0  0  0  0  0
   52.3290   49.6650   17.0160 H   0  0  0  0  0  0  0  0  0  0  0  0
   53.7020   52.8250   17.2810 O   0  0  0  0  0  0  0  0  0  0  0  0
   54.5100   52.9660   17.7920 H   0  0  0  0  0  0  0  0  0  0  0  0
   49.8530   50.0440   18.0390 C   0  0  0  0  0  0  0  0  0  0  0  0
   49.0570   49.3000   19.1120 C   0  0  0  0  0  0  0  0  0  0  0  0
   51.1040   50.7360   20.0880 C   0  0  0  0  0  0  0  0  0  0  0  0
   52.2870   49.7720   19.9690 C   0  0  0  0  0  0  0  0  0  0  0  0
  1  7  1  0  0  0  0
  1 21  1  0  0  0  0
  2 11  1  1  0  0  0
  2  3  1  0  0  0  0
  4  3  1  0  0  0  0
  5  4  1  0  0  0  0
  6  9  1  0  0  0  0
  6  5  1  0  0  0  0
  7  6  1  0  0  0  0
  8  7  2  0  0  0  0
  9  2  1  0  0  0  0
 11 10  1  0  0  0  0
 12 13  2  0  0  0  0
 12  1  1  0  0  0  0
 14 16  1  0  0  0  0
 14 12  1  0  0  0  0
 15 14  1  0  0  0  0
 17 18  1  0  0  0  0
 17 13  1  0  0  0  0
 19  1  1  0  0  0  0
 19 20  1  0  0  0  0
 22 21  1  0  0  0  0
M  END
>  <MODEL>
6

>  <REMARK>
  Name = ZINC44785356
                            x       y       z     vdW  Elec       q    Type
                         _______ _______ _______ _____ _____    ______ ____

>  <TORSDO>
F 7

>  <minimizedAffinity>
-6.34501816661201

$$$$
ZINC44785356
 OpenBabel10211215023D

 22 22  0  0  1  0  0  0  0  0999 V2000
   50.8200   51.1550   18.8710 C   0  0  0  0  0  0  0  0  0  0  0  0
   50.8210   55.3870   20.9800 C   0  0  1  0  0  0  0  0  0  0  0  0
   51.2240   54.7440   22.3100 C   0  0  0  0  0  0  0  0  0  0  0  0
   51.7930   53.3470   22.0510 C   0  0  0  0  0  0  0  0  0  0  0  0
   50.7160   52.4750   21.3990 C   0  0  0  0  0  0  0  0  0  0  0  0
   50.2200   53.1560   20.1950 N   0  0  0  0  0  0  0  0  0  0  0  0
   50.2120   52.5270   19.0040 C   0  0  0  0  0  0  0  0  0  0  0  0
   49.7130   53.0640   18.0370 O   0  0  0  0  0  0  0  0  0  0  0  0
   49.7340   54.5370   20.3150 C   0  0  0  0  0  0  0  0  0  0  0  0
   48.8100   56.8620   20.8280 C   0  0  0  0  0  0  0  0  0  0  0  0
   50.2830   56.7960   21.2370 C   0  0  0  0  0  0  0  0  0  0  0  0
   50.3520   50.5190   17.5880 C   0  0  0  0  0  0  0  0  0  0  0  0
   49.2210   49.8960   17.5510 N   0  0  0  0  0  0  0  0  0  0  0  0
   51.1310   50.6030   16.4540 N   0  0  0  0  0  0  0  0  0  0  0  0
   51.5600   49.8090   16.1020 H   0  0  0  0  0  0  0  0  0  0  0  0
   51.2490   51.4570   16.0100 H   0  0  0  0  0  0  0  0  0  0  0  0
   48.7820   49.2990   16.3430 O   0  0  0  0  0  0  0  0  0  0  0  0
   48.1180   49.8170   15.8680 H   0  0  0  0  0  0  0  0  0  0  0  0
   50.3890   50.2890   20.0570 C   0  0  0  0  0  0  0  0  0  0  0  0
   51.3210   49.0810   20.1720 C   0  0  0  0  0  0  0  0  0  0  0  0
   52.3460   51.2740   18.8550 C   0  0  0  0  0  0  0  0  0  0  0  0
   52.7430   52.6900   18.4340 C   0  0  0  0  0  0  0  0  0  0  0  0
  1  7  1  0  0  0  0
  1 19  1  0  0  0  0
  2 11  1  1  0  0  0
  2  3  1  0  0  0  0
  4  3  1  0  0  0  0
  5  4  1  0  0  0  0
  6  9  1  0  0  0  0
  6  5  1  0  0  0  0
  7  6  1  0  0  0  0
  8  7  2  0  0  0  0
  9  2  1  0  0  0  0
 10 11  1  0  0  0  0
 12  1  1  0  0  0  0
 13 12  2  0  0  0  0
 14 12  1  0  0  0  0
 15 14  1  0  0  0  0
 16 14  1  0  0  0  0
 17 13  1  0  0  0  0
 18 17  1  0  0  0  0
 19 20  1  0  0  0  0
 21  1  1  0  0  0  0
 22 21  1  0  0  0  0
M  END
>  <MODEL>
7

>  <REMARK>
  Name = ZINC44785356
                            x       y       z     vdW  Elec       q    Type
                         _______ _______ _______ _____ _____    ______ ____

>  <TORSDO>
F 7

>  <minimizedAffinity>
-6.2785927569847528

$$$$
ZINC44785356
 OpenBabel10211215023D

 22 22  0  0  1  0  0  0  0  0999 V2000
   50.6390   51.6720   19.2830 C   0  0  0  0  0  0  0  0  0  0  0  0
   48.6010   48.4250   16.5150 C   0  0  1  0  0  0  0  0  0  0  0  0
   48.1260   49.5170   15.5530 C   0  0  0  0  0  0  0  0  0  0  0  0
   48.9330   50.7960   15.7920 C   0  0  0  0  0  0  0  0  0  0  0  0
   48.7010   51.2800   17.2270 C   0  0  0  0  0  0  0  0  0  0  0  0
   49.0180   50.1840   18.1530 N   0  0  0  0  0  0  0  0  0  0  0  0
   49.8910   50.3700   19.1630 C   0  0  0  0  0  0  0  0  0  0  0  0
   50.0730   49.4890   19.9770 O   0  0  0  0  0  0  0  0  0  0  0  0
   48.3660   48.8830   17.9580 C   0  0  0  0  0  0  0  0  0  0  0  0
   46.6320   47.0570   17.2180 C   0  0  0  0  0  0  0  0  0  0  0  0
   47.8170   47.1380   16.2520 C   0  0  0  0  0  0  0  0  0  0  0  0
   51.8470   51.6420   18.3830 C   0  0  0  0  0  0  0  0  0  0  0  0
   52.4670   52.7390   18.0970 N   0  0  0  0  0  0  0  0  0  0  0  0
   52.2910   50.4450   17.8660 N   0  0  0  0  0  0  0  0  0  0  0  0
   52.2790   49.6460   18.4150 H   0  0  0  0  0  0  0  0  0  0  0  0
   52.6180   50.4020   16.9530 H   0  0  0  0  0  0  0  0  0  0  0  0
   53.6030   52.7090   17.2510 O   0  0  0  0  0  0  0  0  0  0  0  0
   54.4460   52.6960   17.7260 H   0  0  0  0  0  0  0  0  0  0  0  0
   51.0880   51.8710   20.7320 C   0  0  0  0  0  0  0  0  0  0  0  0
   52.4330   51.1770   20.9500 C   0  0  0  0  0  0  0  0  0  0  0  0
   49.7230   52.8260   18.8690 C   0  0  0  0  0  0  0  0  0  0  0  0
   49.6680   53.8630   19.9940 C   0  0  0  0  0  0  0  0  0  0  0  0
  1 19  1  0  0  0  0
  2 11  1  1  0  0  0
  2  9  1  0  0  0  0
  3  4  1  0  0  0  0
  3  2  1  0  0  0  0
  4  5  1  0  0  0  0
  5  6  1  0  0  0  0
  6  7  1  0  0  0  0
  7  1  1  0  0  0  0
  7  8  2  0  0  0  0
  9  6  1  0  0  0  0
 11 10  1  0  0  0  0
 12  1  1  0  0  0  0
 13 12  2  0  0  0  0
 14 12  1  0  0  0  0
 14 15  1  0  0  0  0
 16 14  1  0  0  0  0
 17 18  1  0  0  0  0
 17 13  1  0  0  0  0
 19 20  1  0  0  0  0
 21  1  1  0  0  0  0
 21 22  1  0  0  0  0
M  END
>  <MODEL>
8

>  <REMARK>
  Name = ZINC44785356
                            x       y       z     vdW  Elec       q    Type
                         _______ _______ _______ _____ _____    ______ ____

>  <TORSDO>
F 7

>  <minimizedAffinity>
-6.243648631253782

$$$$
ZINC44785356
 OpenBabel10211215023D

 22 22  0  0  1  0  0  0  0  0999 V2000
   51.0030   51.4820   19.2600 C   0  0  0  0  0  0  0  0  0  0  0  0
   49.2010   55.6550   20.5610 C   0  0  1  0  0  0  0  0  0  0  0  0
   48.5990   55.8500   19.1670 C   0  0  0  0  0  0  0  0  0  0  0  0
   48.5390   54.5030   18.4430 C   0  0  0  0  0  0  0  0  0  0  0  0
   49.9590   53.9510   18.2830 C   0  0  0  0  0  0  0  0  0  0  0  0
   50.5970   53.8970   19.6060 N   0  0  0  0  0  0  0  0  0  0  0  0
   51.1430   52.7520   20.0590 C   0  0  0  0  0  0  0  0  0  0  0  0
   51.7500   52.7420   21.1100 O   0  0  0  0  0  0  0  0  0  0  0  0
   50.6280   55.1160   20.4260 C   0  0  0  0  0  0  0  0  0  0  0  0
   48.0300   57.8420   20.8620 C   0  0  0  0  0  0  0  0  0  0  0  0
   49.2290   56.9970   21.2970 C   0  0  0  0  0  0  0  0  0  0  0  0
   51.9030   51.5440   18.0540 C   0  0  0  0  0  0  0  0  0  0  0  0
   52.8600   52.4100   18.0060 N   0  0  0  0  0  0  0  0  0  0  0  0
   51.7050   50.6760   17.0020 N   0  0  0  0  0  0  0  0  0  0  0  0
   51.4210   51.0170   16.1400 H   0  0  0  0  0  0  0  0  0  0  0  0
   51.8500   49.7250   17.1240 H   0  0  0  0  0  0  0  0  0  0  0  0
   53.7060   52.4670   16.8720 O   0  0  0  0  0  0  0  0  0  0  0  0
   53.7830   51.6290   16.3960 H   0  0  0  0  0  0  0  0  0  0  0  0
   49.5500   51.3230   18.8050 C   0  0  0  0  0  0  0  0  0  0  0  0
   49.1870   49.8380   18.7680 C   0  0  0  0  0  0  0  0  0  0  0  0
   51.3980   50.2870   20.1310 C   0  0  0  0  0  0  0  0  0  0  0  0
   52.8300   49.8630   19.7970 C   0  0  0  0  0  0  0  0  0  0  0  0
  1  7  1  0  0  0  0
  1 21  1  0  0  0  0
  2 11  1  6  0  0  0
  3  2  1  0  0  0  0
  4  3  1  0  0  0  0
  5  4  1  0  0  0  0
  5  6  1  0  0  0  0
  6  7  1  0  0  0  0
  6  9  1  0  0  0  0
  7  8  2  0  0  0  0
  9  2  1  0  0  0  0
 10 11  1  0  0  0  0
 12  1  1  0  0  0  0
 13 12  2  0  0  0  0
 14 16  1  0  0  0  0
 14 12  1  0  0  0  0
 15 14  1  0  0  0  0
 17 13  1  0  0  0  0
 18 17  1  0  0  0  0
 19  1  1  0  0  0  0
 20 19  1  0  0  0  0
 22 21  1  0  0  0  0
M  END
>  <MODEL>
9

>  <REMARK>
  Name = ZINC44785356
                            x       y       z     vdW  Elec       q    Type
                         _______ _______ _______ _____ _____    ______ ____

>  <TORSDO>
F 7

>  <minimizedAffinity>
-6.1927275146967427

$$$$
ZINC19414859
 OpenBabel10211215033D

 23 24  0  0  1  0  0  0  0  0999 V2000
   51.8820   56.2830   19.9440 C   0  0  2  0  0  0  0  0  0  0  0  0
   49.4270   56.6110   19.5490 C   0  0  0  0  0  0  0  0  0  0  0  0
   48.1910   57.1150   19.9260 C   0  0  0  0  0  0  0  0  0  0  0  0
   48.0690   57.8340   21.1000 C   0  0  0  0  0  0  0  0  0  0  0  0
   49.1770   58.0510   21.8970 C   0  0  0  0  0  0  0  0  0  0  0  0
   50.4080   57.5450   21.5260 C   0  0  0  0  0  0  0  0  0  0  0  0
   50.5380   56.8300   20.3510 C   0  0  0  0  0  0  0  0  0  0  0  0
   48.8220   54.6780   18.3040 C   0  0  0  0  0  0  0  0  0  0  0  0
   49.5500   55.9030   18.3950 O   0  0  0  0  0  0  0  0  0  0  0  0
   51.9490   54.8160   20.2790 C   0  0  0  0  0  0  0  0  0  0  0  0
   51.5780   54.3760   21.5360 C   0  0  0  0  0  0  0  0  0  0  0  0
   51.6330   53.0300   21.8450 C   0  0  0  0  0  0  0  0  0  0  0  0
   52.0710   52.1190   20.8980 C   0  0  0  0  0  0  0  0  0  0  0  0
   52.4500   52.5610   19.6340 C   0  0  0  0  0  0  0  0  0  0  0  0
   52.3870   53.9110   19.3290 C   0  0  0  0  0  0  0  0  0  0  0  0
   52.1310   50.7940   21.2030 O   0  0  0  0  0  0  0  0  0  0  0  0
   50.9220   50.0440   21.0790 C   0  0  0  0  0  0  0  0  0  0  0  0
   52.8800   51.6700   18.7010 O   0  0  0  0  0  0  0  0  0  0  0  0
   51.9080   51.1820   17.7740 C   0  0  0  0  0  0  0  0  0  0  0  0
   52.9400   56.9990   20.6680 N   0  0  0  0  0  0  0  0  0  0  0  0
   53.5940   57.5130   19.9490 H   0  0  0  0  0  0  0  0  0  0  0  0
   52.4870   57.7380   21.3450 H   0  0  0  0  0  0  0  0  0  0  0  0
   53.5340   56.2810   21.2540 H   0  0  0  0  0  0  0  0  0  0  0  0
  1 10  1  1  0  0  0
  1  7  1  0  0  0  0
  1 20  1  0  0  0  0
  2  3  2  0  0  0  0
  2  7  1  0  0  0  0
  3  4  1  0  0  0  0
  4  5  2  0  0  0  0
  6  5  1  0  0  0  0
  7  6  2  0  0  0  0
  8  9  1  0  0  0  0
  9  2  1  0  0  0  0
 10 11  2  0  0  0  0
 11 12  1  0  0  0  0
 13 16  1  0  0  0  0
 13 12  2  0  0  0  0
 14 13  1  0  0  0  0
 15 14  2  0  0  0  0
 15 10  1  0  0  0  0
 17 16  1  0  0  0  0
 18 14  1  0  0  0  0
 19 18  1  0  0  0  0
 20 23  1  0  0  0  0
 20 22  1  0  0  0  0
 21 20  1  0  0  0  0
M  END
>  <MODEL>
1

>  <REMARK>
  Name = ZINC19414859
                            x       y       z     vdW  Elec       q    Type
                         _______ _______ _______ _____ _____    ______ ____

>  <TORSDO>
F 6

>  <minimizedAffinity>
-7.3834225674039828

$$$$
ZINC19414859
 OpenBabel10211215033D

 23 24  0  0  1  0  0  0  0  0999 V2000
   49.5860   51.0910   17.4090 C   0  0  2  0  0  0  0  0  0  0  0  0
   48.5830   49.1000   18.5570 C   0  0  0  0  0  0  0  0  0  0  0  0
   47.5000   48.2870   18.8590 C   0  0  0  0  0  0  0  0  0  0  0  0
   46.2520   48.5830   18.3450 C   0  0  0  0  0  0  0  0  0  0  0  0
   46.0830   49.6860   17.5300 C   0  0  0  0  0  0  0  0  0  0  0  0
   47.1590   50.5000   17.2320 C   0  0  0  0  0  0  0  0  0  0  0  0
   48.4110   50.2060   17.7390 C   0  0  0  0  0  0  0  0  0  0  0  0
   49.9760   48.9220   20.4760 C   0  0  0  0  0  0  0  0  0  0  0  0
   49.8130   48.8110   19.0610 O   0  0  0  0  0  0  0  0  0  0  0  0
   49.5390   52.3280   18.2670 C   0  0  0  0  0  0  0  0  0  0  0  0
   48.7870   53.4180   17.8670 C   0  0  0  0  0  0  0  0  0  0  0  0
   48.7370   54.5530   18.6540 C   0  0  0  0  0  0  0  0  0  0  0  0
   49.4500   54.6060   19.8400 C   0  0  0  0  0  0  0  0  0  0  0  0
   50.2120   53.5130   20.2400 C   0  0  0  0  0  0  0  0  0  0  0  0
   50.2540   52.3750   19.4490 C   0  0  0  0  0  0  0  0  0  0  0  0
   49.4070   55.7250   20.6120 O   0  0  0  0  0  0  0  0  0  0  0  0
   48.3760   56.6720   20.3240 C   0  0  0  0  0  0  0  0  0  0  0  0
   50.9140   53.5600   21.4040 O   0  0  0  0  0  0  0  0  0  0  0  0
   51.6980   52.4120   21.7360 C   0  0  0  0  0  0  0  0  0  0  0  0
   49.5260   51.4740   15.9920 N   0  0  0  0  0  0  0  0  0  0  0  0
   48.5120   51.2960   15.6060 H   0  0  0  0  0  0  0  0  0  0  0  0
   49.7760   52.5400   15.8900 H   0  0  0  0  0  0  0  0  0  0  0  0
   50.2470   50.8720   15.4200 H   0  0  0  0  0  0  0  0  0  0  0  0
  1 20  1  6  0  0  0
  1  7  1  0  0  0  0
  1 10  1  0  0  0  0
  2  3  1  0  0  0  0
  2  9  1  0  0  0  0
  4  3  2  0  0  0  0
  5  4  1  0  0  0  0
  6  5  2  0  0  0  0
  6  7  1  0  0  0  0
  7  2  2  0  0  0  0
  9  8  1  0  0  0  0
 10 15  1  0  0  0  0
 11 10  2  0  0  0  0
 11 12  1  0  0  0  0
 12 13  2  0  0  0  0
 13 14  1  0  0  0  0
 13 16  1  0  0  0  0
 14 18  1  0  0  0  0
 15 14  2  0  0  0  0
 17 16  1  0  0  0  0
 18 19  1  0  0  0  0
 21 20  1  0  0  0  0
 22 20  1  0  0  0  0
 23 20  1  0  0  0  0
M  END
>  <MODEL>
2

>  <REMARK>
  Name = ZINC19414859
                            x       y       z     vdW  Elec       q    Type
                         _______ _______ _______ _____ _____    ______ ____

>  <TORSDO>
F 6

>  <minimizedAffinity>
-7.0228168241077222

$$$$
ZINC19414859
 OpenBabel10211215033D

 23 24  0  0  1  0  0  0  0  0999 V2000
   48.8080   49.2870   16.8800 C   0  0  2  0  0  0  0  0  0  0  0  0
   49.8990   51.3920   17.6950 C   0  0  0  0  0  0  0  0  0  0  0  0
   49.8590   52.7460   17.9920 C   0  0  0  0  0  0  0  0  0  0  0  0
   48.6930   53.4610   17.7970 C   0  0  0  0  0  0  0  0  0  0  0  0
   47.5660   52.8270   17.3070 C   0  0  0  0  0  0  0  0  0  0  0  0
   47.6050   51.4790   17.0050 C   0  0  0  0  0  0  0  0  0  0  0  0
   48.7670   50.7580   17.2030 C   0  0  0  0  0  0  0  0  0  0  0  0
   52.2240   51.4350   18.1900 C   0  0  0  0  0  0  0  0  0  0  0  0
   51.0450   50.6870   17.8860 O   0  0  0  0  0  0  0  0  0  0  0  0
   47.4300   48.8210   16.4890 C   0  0  0  0  0  0  0  0  0  0  0  0
   47.1150   48.6370   15.1550 C   0  0  0  0  0  0  0  0  0  0  0  0
   45.8540   48.2040   14.7930 C   0  0  0  0  0  0  0  0  0  0  0  0
   44.8970   47.9640   15.7660 C   0  0  0  0  0  0  0  0  0  0  0  0
   45.2120   48.1540   17.1080 C   0  0  0  0  0  0  0  0  0  0  0  0
   46.4800   48.5830   17.4650 C   0  0  0  0  0  0  0  0  0  0  0  0
   43.6530   47.5440   15.4100 O   0  0  0  0  0  0  0  0  0  0  0  0
   43.5330   46.2000   14.9380 C   0  0  0  0  0  0  0  0  0  0  0  0
   44.2770   47.9190   18.0670 O   0  0  0  0  0  0  0  0  0  0  0  0
   44.7070   47.2140   19.2330 C   0  0  0  0  0  0  0  0  0  0  0  0
   49.2620   48.5390   18.0600 N   0  0  0  0  0  0  0  0  0  0  0  0
   50.1010   49.0710   18.5320 H   0  0  0  0  0  0  0  0  0  0  0  0
   48.4340   48.4500   18.7780 H   0  0  0  0  0  0  0  0  0  0  0  0
   49.5910   47.5350   17.7530 H   0  0  0  0  0  0  0  0  0  0  0  0
  1 10  1  1  0  0  0
  1  7  1  0  0  0  0
  1 20  1  0  0  0  0
  2  9  1  0  0  0  0
  2  3  2  0  0  0  0
  4  3  1  0  0  0  0
  5  4  2  0  0  0  0
  6  7  2  0  0  0  0
  6  5  1  0  0  0  0
  7  2  1  0  0  0  0
  9  8  1  0  0  0  0
 10 15  2  0  0  0  0
 11 10  1  0  0  0  0
 12 11  2  0  0  0  0
 12 13  1  0  0  0  0
 13 14  2  0  0  0  0
 14 15  1  0  0  0  0
 14 18  1  0  0  0  0
 16 13  1  0  0  0  0
 17 16  1  0  0  0  0
 18 19  1  0  0  0  0
 20 21  1  0  0  0  0
 20 22  1  0  0  0  0
 23 20  1  0  0  0  0
M  END
>  <MODEL>
3

>  <REMARK>
  Name = ZINC19414859
                            x       y       z     vdW  Elec       q    Type
                         _______ _______ _______ _____ _____    ______ ____

>  <TORSDO>
F 6

>  <minimizedAffinity>
-7.001422312420492

$$$$
ZINC19414859
 OpenBabel10211215033D

 23 24  0  0  1  0  0  0  0  0999 V2000
   48.5880   52.0970   16.4540 C   0  0  2  0  0  0  0  0  0  0  0  0
   48.0050   49.8990   15.3980 C   0  0  0  0  0  0  0  0  0  0  0  0
   47.2450   48.7400   15.3410 C   0  0  0  0  0  0  0  0  0  0  0  0
   46.2500   48.5220   16.2750 C   0  0  0  0  0  0  0  0  0  0  0  0
   46.0110   49.4580   17.2640 C   0  0  0  0  0  0  0  0  0  0  0  0
   46.7710   50.6110   17.3250 C   0  0  0  0  0  0  0  0  0  0  0  0
   47.7640   50.8370   16.3910 C   0  0  0  0  0  0  0  0  0  0  0  0
   50.1790   49.3450   14.6110 C   0  0  0  0  0  0  0  0  0  0  0  0
   48.9840   50.1160   14.4790 O   0  0  0  0  0  0  0  0  0  0  0  0
   49.4140   52.0930   17.7140 C   0  0  0  0  0  0  0  0  0  0  0  0
   49.5390   53.2490   18.4620 C   0  0  0  0  0  0  0  0  0  0  0  0
   50.2910   53.2480   19.6210 C   0  0  0  0  0  0  0  0  0  0  0  0
   50.9340   52.0900   20.0300 C   0  0  0  0  0  0  0  0  0  0  0  0
   50.8140   50.9280   19.2740 C   0  0  0  0  0  0  0  0  0  0  0  0
   50.0530   50.9340   18.1160 C   0  0  0  0  0  0  0  0  0  0  0  0
   51.6800   52.0900   21.1670 O   0  0  0  0  0  0  0  0  0  0  0  0
   51.5280   53.2080   22.0430 C   0  0  0  0  0  0  0  0  0  0  0  0
   51.4420   49.7890   19.6710 O   0  0  0  0  0  0  0  0  0  0  0  0
   50.6490   48.8140   20.3500 C   0  0  0  0  0  0  0  0  0  0  0  0
   47.6960   53.2640   16.4570 N   0  0  0  0  0  0  0  0  0  0  0  0
   46.7640   53.0140   16.9850 H   0  0  0  0  0  0  0  0  0  0  0  0
   48.1920   54.1030   16.9660 H   0  0  0  0  0  0  0  0  0  0  0  0
   47.4640   53.5500   15.4200 H   0  0  0  0  0  0  0  0  0  0  0  0
  1  7  1  1  0  0  0
  1 20  1  0  0  0  0
  1 10  1  0  0  0  0
  2  7  1  0  0  0  0
  3  2  2  0  0  0  0
  3  4  1  0  0  0  0
  4  5  2  0  0  0  0
  5  6  1  0  0  0  0
  7  6  2  0  0  0  0
  9  8  1  0  0  0  0
  9  2  1  0  0  0  0
 10 15  2  0  0  0  0
 10 11  1  0  0  0  0
 11 12  2  0  0  0  0
 12 13  1  0  0  0  0
 13 16  1  0  0  0  0
 14 18  1  0  0  0  0
 14 13  2  0  0  0  0
 15 14  1  0  0  0  0
 16 17  1  0  0  0  0
 18 19  1  0  0  0  0
 20 22  1  0  0  0  0
 20 21  1  0  0  0  0
 23 20  1  0  0  0  0
M  END
>  <MODEL>
4

>  <REMARK>
  Name = ZINC19414859
                            x       y       z     vdW  Elec       q    Type
                         _______ _______ _______ _____ _____    ______ ____

>  <TORSDO>
F 6

>  <minimizedAffinity>
-6.9228749498390991

$$$$
ZINC19414859
 OpenBabel10211215033D

 23 24  0  0  1  0  0  0  0  0999 V2000
   48.3420   51.0160   16.9640 C   0  0  2  0  0  0  0  0  0  0  0  0
   50.0150   51.3500   18.8010 C   0  0  0  0  0  0  0  0  0  0  0  0
   50.7670   50.8710   19.8630 C   0  0  0  0  0  0  0  0  0  0  0  0
   50.6620   49.5450   20.2390 C   0  0  0  0  0  0  0  0  0  0  0  0
   49.8090   48.6980   19.5580 C   0  0  0  0  0  0  0  0  0  0  0  0
   49.0550   49.1740   18.5020 C   0  0  0  0  0  0  0  0  0  0  0  0
   49.1600   50.4980   18.1180 C   0  0  0  0  0  0  0  0  0  0  0  0
   51.3810   53.2890   18.6310 C   0  0  0  0  0  0  0  0  0  0  0  0
   50.1170   52.6540   18.4280 O   0  0  0  0  0  0  0  0  0  0  0  0
   47.3660   49.9560   16.5240 C   0  0  0  0  0  0  0  0  0  0  0  0
   47.5590   49.2950   15.3250 C   0  0  0  0  0  0  0  0  0  0  0  0
   46.6700   48.3170   14.9200 C   0  0  0  0  0  0  0  0  0  0  0  0
   45.5750   48.0060   15.7100 C   0  0  0  0  0  0  0  0  0  0  0  0
   45.3770   48.6760   16.9140 C   0  0  0  0  0  0  0  0  0  0  0  0
   46.2760   49.6510   17.3170 C   0  0  0  0  0  0  0  0  0  0  0  0
   44.6950   47.0490   15.3100 O   0  0  0  0  0  0  0  0  0  0  0  0
   45.1630   45.7000   15.3040 C   0  0  0  0  0  0  0  0  0  0  0  0
   44.3040   48.3740   17.6940 O   0  0  0  0  0  0  0  0  0  0  0  0
   44.5270   47.4790   18.7850 C   0  0  0  0  0  0  0  0  0  0  0  0
   49.2330   51.3560   15.8460 N   0  0  0  0  0  0  0  0  0  0  0  0
   50.2520   51.5210   16.2260 H   0  0  0  0  0  0  0  0  0  0  0  0
   49.2410   50.5300   15.1200 H   0  0  0  0  0  0  0  0  0  0  0  0
   48.8730   52.2720   15.3560 H   0  0  0  0  0  0  0  0  0  0  0  0
  1 20  1  6  0  0  0
  1  7  1  0  0  0  0
  2  3  2  0  0  0  0
  3  4  1  0  0  0  0
  5  4  2  0  0  0  0
  6  5  1  0  0  0  0
  7  6  2  0  0  0  0
  7  2  1  0  0  0  0
  9  8  1  0  0  0  0
  9  2  1  0  0  0  0
 10  1  1  0  0  0  0
 10 15  2  0  0  0  0
 11 10  1  0  0  0  0
 12 11  2  0  0  0  0
 12 13  1  0  0  0  0
 13 14  2  0  0  0  0
 14 15  1  0  0  0  0
 14 18  1  0  0  0  0
 16 13  1  0  0  0  0
 17 16  1  0  0  0  0
 18 19  1  0  0  0  0
 20 21  1  0  0  0  0
 22 20  1  0  0  0  0
 23 20  1  0  0  0  0
M  END
>  <MODEL>
5

>  <REMARK>
  Name = ZINC19414859
                            x       y       z     vdW  Elec       q    Type
                         _______ _______ _______ _____ _____    ______ ____

>  <TORSDO>
F 6

>  <minimizedAffinity>
-6.8441807830701133

$$$$
ZINC19414859
 OpenBabel10211215033D

 23 24  0  0  1  0  0  0  0  0999 V2000
   51.4630   53.7990   21.0580 C   0  0  2  0  0  0  0  0  0  0  0  0
   50.6700   56.1260   21.5550 C   0  0  0  0  0  0  0  0  0  0  0  0
   49.7370   57.1450   21.4330 C   0  0  0  0  0  0  0  0  0  0  0  0
   48.5920   56.9460   20.6860 C   0  0  0  0  0  0  0  0  0  0  0  0
   48.3760   55.7320   20.0610 C   0  0  0  0  0  0  0  0  0  0  0  0
   49.3060   54.7170   20.1770 C   0  0  0  0  0  0  0  0  0  0  0  0
   50.4510   54.9080   20.9270 C   0  0  0  0  0  0  0  0  0  0  0  0
   52.7070   57.3210   21.8320 C   0  0  0  0  0  0  0  0  0  0  0  0
   51.7970   56.3190   22.2900 O   0  0  0  0  0  0  0  0  0  0  0  0
   50.9680   52.5790   20.3270 C   0  0  0  0  0  0  0  0  0  0  0  0
   50.9230   51.3580   20.9720 C   0  0  0  0  0  0  0  0  0  0  0  0
   50.4640   50.2370   20.3060 C   0  0  0  0  0  0  0  0  0  0  0  0
   50.0590   50.3330   18.9850 C   0  0  0  0  0  0  0  0  0  0  0  0
   50.1090   51.5610   18.3320 C   0  0  0  0  0  0  0  0  0  0  0  0
   50.5650   52.6820   19.0080 C   0  0  0  0  0  0  0  0  0  0  0  0
   49.6130   49.2290   18.3270 O   0  0  0  0  0  0  0  0  0  0  0  0
   48.2630   48.8290   18.5710 C   0  0  0  0  0  0  0  0  0  0  0  0
   49.7120   51.6610   17.0360 O   0  0  0  0  0  0  0  0  0  0  0  0
   48.4790   52.3370   16.7850 C   0  0  0  0  0  0  0  0  0  0  0  0
   51.6520   53.4760   22.4780 N   0  0  0  0  0  0  0  0  0  0  0  0
   51.6310   54.4010   23.0720 H   0  0  0  0  0  0  0  0  0  0  0  0
   50.8460   52.8070   22.8130 H   0  0  0  0  0  0  0  0  0  0  0  0
   52.6230   52.9760   22.6140 H   0  0  0  0  0  0  0  0  0  0  0  0
  1 10  1  1  0  0  0
  1 20  1  0  0  0  0
  2  9  1  0  0  0  0
  3  2  1  0  0  0  0
  4  3  2  0  0  0  0
  5  6  2  0  0  0  0
  5  4  1  0  0  0  0
  6  7  1  0  0  0  0
  7  1  1  0  0  0  0
  7  2  2  0  0  0  0
  8  9  1  0  0  0  0
 10 11  1  0  0  0  0
 12 11  2  0  0  0  0
 13 12  1  0  0  0  0
 14 13  2  0  0  0  0
 14 15  1  0  0  0  0
 15 10  2  0  0  0  0
 16 17  1  0  0  0  0
 16 13  1  0  0  0  0
 18 14  1  0  0  0  0
 19 18  1  0  0  0  0
 20 23  1  0  0  0  0
 20 22  1  0  0  0  0
 20 21  1  0  0  0  0
M  END
>  <MODEL>
6

>  <REMARK>
  Name = ZINC19414859
                            x       y       z     vdW  Elec       q    Type
                         _______ _______ _______ _____ _____    ______ ____

>  <TORSDO>
F 6

>  <minimizedAffinity>
-6.7968143972529109

$$$$
ZINC19414859
 OpenBabel10211215033D

 23 24  0  0  1  0  0  0  0  0999 V2000
   49.4570   51.2060   16.8520 C   0  0  2  0  0  0  0  0  0  0  0  0
   48.7150   53.4070   17.7950 C   0  0  0  0  0  0  0  0  0  0  0  0
   48.7410   54.3770   18.7870 C   0  0  0  0  0  0  0  0  0  0  0  0
   49.5300   54.1960   19.9060 C   0  0  0  0  0  0  0  0  0  0  0  0
   50.2940   53.0520   20.0370 C   0  0  0  0  0  0  0  0  0  0  0  0
   50.2660   52.0820   19.0530 C   0  0  0  0  0  0  0  0  0  0  0  0
   49.4830   52.2600   17.9280 C   0  0  0  0  0  0  0  0  0  0  0  0
   47.8020   54.9180   16.2010 C   0  0  0  0  0  0  0  0  0  0  0  0
   47.9400   53.5830   16.6920 O   0  0  0  0  0  0  0  0  0  0  0  0
   48.3720   50.2050   17.1550 C   0  0  0  0  0  0  0  0  0  0  0  0
   48.3180   49.6010   18.3970 C   0  0  0  0  0  0  0  0  0  0  0  0
   47.3210   48.6870   18.6810 C   0  0  0  0  0  0  0  0  0  0  0  0
   46.3800   48.3650   17.7160 C   0  0  0  0  0  0  0  0  0  0  0  0
   46.4380   48.9680   16.4630 C   0  0  0  0  0  0  0  0  0  0  0  0
   47.4370   49.8880   16.1870 C   0  0  0  0  0  0  0  0  0  0  0  0
   45.4020   47.4600   17.9920 O   0  0  0  0  0  0  0  0  0  0  0  0
   45.0970   47.2360   19.3690 C   0  0  0  0  0  0  0  0  0  0  0  0
   45.5170   48.6560   15.5130 O   0  0  0  0  0  0  0  0  0  0  0  0
   46.0060   48.0880   14.2970 C   0  0  0  0  0  0  0  0  0  0  0  0
   50.7560   50.5210   16.8070 N   0  0  0  0  0  0  0  0  0  0  0  0
   51.5380   51.2360   16.5140 H   0  0  0  0  0  0  0  0  0  0  0  0
   50.9890   50.1100   17.8000 H   0  0  0  0  0  0  0  0  0  0  0  0
   50.7140   49.7030   16.0720 H   0  0  0  0  0  0  0  0  0  0  0  0
  1 20  1  1  0  0  0
  1 10  1  0  0  0  0
  1  7  1  0  0  0  0
  2  7  2  0  0  0  0
  2  3  1  0  0  0  0
  3  4  2  0  0  0  0
  4  5  1  0  0  0  0
  6  5  2  0  0  0  0
  7  6  1  0  0  0  0
  8  9  1  0  0  0  0
  9  2  1  0  0  0  0
 10 11  2  0  0  0  0
 11 12  1  0  0  0  0
 13 16  1  0  0  0  0
 13 12  2  0  0  0  0
 14 13  1  0  0  0  0
 15 14  2  0  0  0  0
 15 10  1  0  0  0  0
 16 17  1  0  0  0  0
 18 14  1  0  0  0  0
 19 18  1  0  0  0  0
 20 22  1  0  0  0  0
 21 20  1  0  0  0  0
 23 20  1  0  0  0  0
M  END
>  <MODEL>
7

>  <REMARK>
  Name = ZINC19414859
                            x       y       z     vdW  Elec       q    Type
                         _______ _______ _______ _____ _____    ______ ____

>  <TORSDO>
F 6

>  <minimizedAffinity>
-6.7966424138725738

$$$$
ZINC19414859
 OpenBabel10211215033D

 23 24  0  0  1  0  0  0  0  0999 V2000
   47.8930   48.8660   17.6770 C   0  0  2  0  0  0  0  0  0  0  0  0
   45.5620   48.3090   16.9400 C   0  0  0  0  0  0  0  0  0  0  0  0
   44.6420   47.9940   15.9510 C   0  0  0  0  0  0  0  0  0  0  0  0
   45.0500   47.8950   14.6350 C   0  0  0  0  0  0  0  0  0  0  0  0
   46.3750   48.1090   14.3030 C   0  0  0  0  0  0  0  0  0  0  0  0
   47.2930   48.4290   15.2860 C   0  0  0  0  0  0  0  0  0  0  0  0
   46.8910   48.5240   16.6040 C   0  0  0  0  0  0  0  0  0  0  0  0
   44.7290   47.2030   18.8720 C   0  0  0  0  0  0  0  0  0  0  0  0
   45.1630   48.4060   18.2360 O   0  0  0  0  0  0  0  0  0  0  0  0
   48.1910   50.3420   17.6320 C   0  0  0  0  0  0  0  0  0  0  0  0
   47.2250   51.2290   17.1940 C   0  0  0  0  0  0  0  0  0  0  0  0
   47.4920   52.5850   17.1580 C   0  0  0  0  0  0  0  0  0  0  0  0
   48.7340   53.0570   17.5490 C   0  0  0  0  0  0  0  0  0  0  0  0
   49.7090   52.1650   17.9840 C   0  0  0  0  0  0  0  0  0  0  0  0
   49.4330   50.8070   18.0240 C   0  0  0  0  0  0  0  0  0  0  0  0
   49.0000   54.3900   17.5070 O   0  0  0  0  0  0  0  0  0  0  0  0
   48.6610   55.1560   18.6650 C   0  0  0  0  0  0  0  0  0  0  0  0
   50.9300   52.6230   18.3700 O   0  0  0  0  0  0  0  0  0  0  0  0
   52.0200   51.7030   18.3010 C   0  0  0  0  0  0  0  0  0  0  0  0
   49.1320   48.1100   17.4470 N   0  0  0  0  0  0  0  0  0  0  0  0
   49.3700   48.1110   16.3740 H   0  0  0  0  0  0  0  0  0  0  0  0
   49.9560   48.5770   18.0060 H   0  0  0  0  0  0  0  0  0  0  0  0
   48.9970   47.0740   17.7910 H   0  0  0  0  0  0  0  0  0  0  0  0
  1  7  1  6  0  0  0
  2  9  1  0  0  0  0
  3  2  2  0  0  0  0
  4  3  1  0  0  0  0
  5  4  2  0  0  0  0
  5  6  1  0  0  0  0
  6  7  2  0  0  0  0
  7  2  1  0  0  0  0
  9  8  1  0  0  0  0
 10  1  1  0  0  0  0
 10 15  2  0  0  0  0
 11 10  1  0  0  0  0
 12 11  2  0  0  0  0
 12 13  1  0  0  0  0
 13 14  2  0  0  0  0
 14 15  1  0  0  0  0
 14 18  1  0  0  0  0
 16 13  1  0  0  0  0
 16 17  1  0  0  0  0
 19 18  1  0  0  0  0
 20  1  1  0  0  0  0
 20 23  1  0  0  0  0
 20 22  1  0  0  0  0
 21 20  1  0  0  0  0
M  END
>  <MODEL>
8

>  <REMARK>
  Name = ZINC19414859
                            x       y       z     vdW  Elec       q    Type
                         _______ _______ _______ _____ _____    ______ ____

>  <TORSDO>
F 6

>  <minimizedAffinity>
-6.7543010639363086

$$$$
ZINC19414859
 OpenBabel10211215033D

 23 24  0  0  1  0  0  0  0  0999 V2000
   52.5130   51.8810   19.1780 C   0  0  2  0  0  0  0  0  0  0  0  0
   50.2020   51.2250   18.4600 C   0  0  0  0  0  0  0  0  0  0  0  0
   49.1320   50.3420   18.4610 C   0  0  0  0  0  0  0  0  0  0  0  0
   49.2130   49.1620   19.1760 C   0  0  0  0  0  0  0  0  0  0  0  0
   50.3580   48.8630   19.8910 C   0  0  0  0  0  0  0  0  0  0  0  0
   51.4270   49.7400   19.8870 C   0  0  0  0  0  0  0  0  0  0  0  0
   51.3490   50.9230   19.1780 C   0  0  0  0  0  0  0  0  0  0  0  0
   49.0260   53.2520   18.0540 C   0  0  0  0  0  0  0  0  0  0  0  0
   50.1240   52.3870   17.7570 O   0  0  0  0  0  0  0  0  0  0  0  0
   52.1800   53.0750   20.0350 C   0  0  0  0  0  0  0  0  0  0  0  0
   51.5470   52.8980   21.2510 C   0  0  0  0  0  0  0  0  0  0  0  0
   51.2450   53.9900   22.0420 C   0  0  0  0  0  0  0  0  0  0  0  0
   51.5660   55.2670   21.6120 C   0  0  0  0  0  0  0  0  0  0  0  0
   52.1980   55.4470   20.3850 C   0  0  0  0  0  0  0  0  0  0  0  0
   52.5030   54.3470   19.6000 C   0  0  0  0  0  0  0  0  0  0  0  0
   51.2640   56.3430   22.3870 O   0  0  0  0  0  0  0  0  0  0  0  0
   50.1510   57.1430   21.9810 C   0  0  0  0  0  0  0  0  0  0  0  0
   52.5160   56.6980   19.9590 O   0  0  0  0  0  0  0  0  0  0  0  0
   53.7450   57.2520   20.4310 C   0  0  0  0  0  0  0  0  0  0  0  0
   52.7810   52.3240   17.8030 N   0  0  0  0  0  0  0  0  0  0  0  0
   53.7120   51.8630   17.4440 H   0  0  0  0  0  0  0  0  0  0  0  0
   51.9470   52.0250   17.1520 H   0  0  0  0  0  0  0  0  0  0  0  0
   52.8850   53.4190   17.7850 H   0  0  0  0  0  0  0  0  0  0  0  0
  1 20  1  6  0  0  0
  1 10  1  0  0  0  0
  2  3  2  0  0  0  0
  2  7  1  0  0  0  0
  3  4  1  0  0  0  0
  4  5  2  0  0  0  0
  6  5  1  0  0  0  0
  7  1  1  0  0  0  0
  7  6  2  0  0  0  0
  9  8  1  0  0  0  0
  9  2  1  0  0  0  0
 10 11  1  0  0  0  0
 11 12  2  0  0  0  0
 13 12  1  0  0  0  0
 13 16  1  0  0  0  0
 14 13  2  0  0  0  0
 15 10  2  0  0  0  0
 15 14  1  0  0  0  0
 17 16  1  0  0  0  0
 18 14  1  0  0  0  0
 18 19  1  0  0  0  0
 21 20  1  0  0  0  0
 22 20  1  0  0  0  0
 23 20  1  0  0  0  0
M  END
>  <MODEL>
9

>  <REMARK>
  Name = ZINC19414859
                            x       y       z     vdW  Elec       q    Type
                         _______ _______ _______ _____ _____    ______ ____

>  <TORSDO>
F 6

>  <minimizedAffinity>
-6.7252769893775746

$$$$
ZINC52295391
 OpenBabel10211215043D

 21 22  0  0  1  0  0  0  0  0999 V2000
   51.9910   53.2010   20.1320 C   0  0  0  0  0  0  0  0  0  0  0  0
   51.8030   52.5200   21.3200 C   0  0  0  0  0  0  0  0  0  0  0  0
   51.5530   53.2190   22.4850 C   0  0  0  0  0  0  0  0  0  0  0  0
   51.4920   54.6000   22.4640 C   0  0  0  0  0  0  0  0  0  0  0  0
   51.6810   55.2810   21.2760 C   0  0  0  0  0  0  0  0  0  0  0  0
   51.9350   54.5820   20.1100 C   0  0  0  0  0  0  0  0  0  0  0  0
   52.3090   52.3100   18.6460 S   0  0  0  0  0  0  0  0  0  0  0  0
   53.3720   52.9840   17.9870 O   0  0  0  0  0  0  0  0  0  0  0  0
   52.3840   50.9360   19.0030 O   0  0  0  0  0  0  0  0  0  0  0  0
   50.9730   52.4760   17.6810 N   0  0  0  0  0  0  0  0  0  0  0  0
   51.0610   52.8540   16.7910 H   0  0  0  0  0  0  0  0  0  0  0  0
   48.9720   54.5710   17.9960 C   0  0  0  0  0  0  0  0  0  0  0  0
   48.5880   53.1310   18.3440 C   0  0  1  0  0  0  0  0  0  0  0  0
   48.4830   52.1290   17.1920 C   0  0  0  0  0  0  0  0  0  0  0  0
   49.6590   52.0510   18.1690 C   0  0  1  0  0  0  0  0  0  0  0  0
   51.6140   56.7870   21.2520 C   0  0  1  0  0  0  0  0  0  0  0  0
   50.1640   57.2360   21.4460 C   0  0  0  0  0  0  0  0  0  0  0  0
   52.4440   57.3310   22.3350 N   0  0  0  0  0  0  0  0  0  0  0  0
   52.8150   56.5730   22.8870 H   0  0  0  0  0  0  0  0  0  0  0  0
   51.8820   57.9310   22.9210 H   0  0  0  0  0  0  0  0  0  0  0  0
   53.5520   58.1060   21.7590 C   0  0  0  0  0  0  0  0  0  0  0  0
  1  2  1  0  0  0  0
  2  3  2  0  0  0  0
  4  3  1  0  0  0  0
  5  4  2  0  0  0  0
  6  1  2  0  0  0  0
  6  5  1  0  0  0  0
  7  9  2  0  0  0  0
  7  1  1  0  0  0  0
  8  7  2  0  0  0  0
 10  7  1  0  0  0  0
 11 10  1  0  0  0  0
 13 12  1  6  0  0  0
 14 15  1  0  0  0  0
 14 13  1  0  0  0  0
 15 10  1  6  0  0  0
 15 13  1  0  0  0  0
 16  5  1  1  0  0  0
 16 17  1  0  0  0  0
 16 18  1  0  0  0  0
 18 19  1  0  0  0  0
 18 20  1  0  0  0  0
 21 18  1  0  0  0  0
M  END
>  <MODEL>
1

>  <REMARK>
  Name = ZINC52295391
                            x       y       z     vdW  Elec       q    Type
                         _______ _______ _______ _____ _____    ______ ____

>  <TORSDO>
F 5

>  <minimizedAffinity>
-6.8927364447363138

$$$$
ZINC52295391
 OpenBabel10211215043D

 21 22  0  0  1  0  0  0  0  0999 V2000
   50.7160   57.0910   20.9860 C   0  0  0  0  0  0  0  0  0  0  0  0
   50.1710   57.7330   22.0840 C   0  0  0  0  0  0  0  0  0  0  0  0
   48.8730   58.2020   22.0350 C   0  0  0  0  0  0  0  0  0  0  0  0
   48.1180   58.0320   20.8900 C   0  0  0  0  0  0  0  0  0  0  0  0
   48.6620   57.3920   19.7920 C   0  0  0  0  0  0  0  0  0  0  0  0
   49.9630   56.9260   19.8380 C   0  0  0  0  0  0  0  0  0  0  0  0
   52.3710   56.4910   21.0480 S   0  0  0  0  0  0  0  0  0  0  0  0
   53.0200   56.9690   19.8770 O   0  0  0  0  0  0  0  0  0  0  0  0
   52.8560   56.7680   22.3540 O   0  0  0  0  0  0  0  0  0  0  0  0
   52.2990   54.8430   20.9090 N   0  0  0  0  0  0  0  0  0  0  0  0
   52.8050   54.3920   20.2140 H   0  0  0  0  0  0  0  0  0  0  0  0
   50.1960   53.2180   19.7120 C   0  0  0  0  0  0  0  0  0  0  0  0
   50.3600   53.2020   21.2330 C   0  0  1  0  0  0  0  0  0  0  0  0
   51.6170   52.5410   21.8020 C   0  0  0  0  0  0  0  0  0  0  0  0
   51.4720   54.0650   21.8340 C   0  0  1  0  0  0  0  0  0  0  0  0
   47.8390   57.2070   18.5430 C   0  0  1  0  0  0  0  0  0  0  0  0
   47.4730   58.5760   17.9660 C   0  0  0  0  0  0  0  0  0  0  0  0
   48.6160   56.4510   17.5520 N   0  0  0  0  0  0  0  0  0  0  0  0
   48.5040   55.4620   17.7220 H   0  0  0  0  0  0  0  0  0  0  0  0
   49.5920   56.6970   17.6310 H   0  0  0  0  0  0  0  0  0  0  0  0
   48.1350   56.7740   16.2030 C   0  0  0  0  0  0  0  0  0  0  0  0
  1  7  1  0  0  0  0
  1  2  2  0  0  0  0
  3  2  1  0  0  0  0
  4  3  2  0  0  0  0
  5  6  2  0  0  0  0
  5  4  1  0  0  0  0
  6  1  1  0  0  0  0
  7  9  2  0  0  0  0
  8  7  2  0  0  0  0
 10  7  1  0  0  0  0
 11 10  1  0  0  0  0
 13 12  1  6  0  0  0
 13 14  1  0  0  0  0
 13 15  1  0  0  0  0
 14 15  1  0  0  0  0
 15 10  1  6  0  0  0
 16 18  1  6  0  0  0
 16  5  1  0  0  0  0
 17 16  1  0  0  0  0
 18 20  1  0  0  0  0
 18 19  1  0  0  0  0
 21 18  1  0  0  0  0
M  END
>  <MODEL>
2

>  <REMARK>
  Name = ZINC52295391
                            x       y       z     vdW  Elec       q    Type
                         _______ _______ _______ _____ _____    ______ ____

>  <TORSDO>
F 5

>  <minimizedAffinity>
-6.8565013252126521

$$$$
ZINC52295391
 OpenBabel10211215043D

 21 22  0  0  1  0  0  0  0  0999 V2000
   51.8170   54.5760   21.0560 C   0  0  0  0  0  0  0  0  0  0  0  0
   51.4800   53.8560   22.1870 C   0  0  0  0  0  0  0  0  0  0  0  0
   51.4020   52.4780   22.1310 C   0  0  0  0  0  0  0  0  0  0  0  0
   51.6600   51.8180   20.9440 C   0  0  0  0  0  0  0  0  0  0  0  0
   51.9960   52.5370   19.8130 C   0  0  0  0  0  0  0  0  0  0  0  0
   52.0700   53.9160   19.8670 C   0  0  0  0  0  0  0  0  0  0  0  0
   51.9180   56.3330   21.1270 S   0  0  0  0  0  0  0  0  0  0  0  0
   52.8370   56.6460   22.1650 O   0  0  0  0  0  0  0  0  0  0  0  0
   52.0950   56.7840   19.7910 O   0  0  0  0  0  0  0  0  0  0  0  0
   50.4390   56.8880   21.6220 N   0  0  0  0  0  0  0  0  0  0  0  0
   50.1010   56.6510   22.5000 H   0  0  0  0  0  0  0  0  0  0  0  0
   48.4160   55.5400   20.0150 C   0  0  0  0  0  0  0  0  0  0  0  0
   48.5700   57.0560   19.8790 C   0  0  1  0  0  0  0  0  0  0  0  0
   48.1580   57.9180   21.0740 C   0  0  0  0  0  0  0  0  0  0  0  0
   49.6400   57.7380   20.7350 C   0  0  1  0  0  0  0  0  0  0  0  0
   52.2780   51.8170   18.5190 C   0  0  1  0  0  0  0  0  0  0  0  0
   52.5420   50.3380   18.8050 C   0  0  0  0  0  0  0  0  0  0  0  0
   51.1190   51.9440   17.6260 N   0  0  0  0  0  0  0  0  0  0  0  0
   51.4370   52.1160   16.6840 H   0  0  0  0  0  0  0  0  0  0  0  0
   50.5410   52.7130   17.9320 H   0  0  0  0  0  0  0  0  0  0  0  0
   50.3370   50.7010   17.6600 C   0  0  0  0  0  0  0  0  0  0  0  0
  1  7  1  0  0  0  0
  1  2  2  0  0  0  0
  3  2  1  0  0  0  0
  4  3  2  0  0  0  0
  5  6  2  0  0  0  0
  5  4  1  0  0  0  0
  6  1  1  0  0  0  0
  7 10  1  0  0  0  0
  7  8  2  0  0  0  0
  9  7  2  0  0  0  0
 10 11  1  0  0  0  0
 13 12  1  1  0  0  0
 13 15  1  0  0  0  0
 13 14  1  0  0  0  0
 15 14  1  0  0  0  0
 15 10  1  1  0  0  0
 16 18  1  1  0  0  0
 16 17  1  0  0  0  0
 16  5  1  0  0  0  0
 18 21  1  0  0  0  0
 18 20  1  0  0  0  0
 19 18  1  0  0  0  0
M  END
>  <MODEL>
3

>  <REMARK>
  Name = ZINC52295391
                            x       y       z     vdW  Elec       q    Type
                         _______ _______ _______ _____ _____    ______ ____

>  <TORSDO>
F 5

>  <minimizedAffinity>
-6.7947547944614684

$$$$
ZINC52295391
 OpenBabel10211215043D

 21 22  0  0  1  0  0  0  0  0999 V2000
   49.6720   54.7870   19.4890 C   0  0  0  0  0  0  0  0  0  0  0  0
   48.4570   55.3830   19.2050 C   0  0  0  0  0  0  0  0  0  0  0  0
   48.0330   56.4730   19.9400 C   0  0  0  0  0  0  0  0  0  0  0  0
   48.8230   56.9690   20.9610 C   0  0  0  0  0  0  0  0  0  0  0  0
   50.0370   56.3730   21.2450 C   0  0  0  0  0  0  0  0  0  0  0  0
   50.4600   55.2790   20.5130 C   0  0  0  0  0  0  0  0  0  0  0  0
   50.2140   53.3980   18.5510 S   0  0  0  0  0  0  0  0  0  0  0  0
   49.2860   53.2410   17.4860 O   0  0  0  0  0  0  0  0  0  0  0  0
   51.6060   53.5750   18.3280 O   0  0  0  0  0  0  0  0  0  0  0  0
   50.0540   52.0630   19.5180 N   0  0  0  0  0  0  0  0  0  0  0  0
   49.2430   51.9320   20.0340 H   0  0  0  0  0  0  0  0  0  0  0  0
   51.7670   52.2050   21.8720 C   0  0  0  0  0  0  0  0  0  0  0  0
   52.0530   51.1310   20.8190 C   0  0  1  0  0  0  0  0  0  0  0  0
   51.0360   49.9980   20.6720 C   0  0  0  0  0  0  0  0  0  0  0  0
   51.1380   51.0800   19.5940 C   0  0  1  0  0  0  0  0  0  0  0  0
   50.8990   56.9130   22.3580 C   0  0  1  0  0  0  0  0  0  0  0  0
   51.8250   55.8080   22.8690 C   0  0  0  0  0  0  0  0  0  0  0  0
   51.7050   58.0330   21.8540 N   0  0  0  0  0  0  0  0  0  0  0  0
   51.6200   58.8170   22.4830 H   0  0  0  0  0  0  0  0  0  0  0  0
   51.3750   58.2990   20.9380 H   0  0  0  0  0  0  0  0  0  0  0  0
   53.1130   57.6230   21.7690 C   0  0  0  0  0  0  0  0  0  0  0  0
  1  6  1  0  0  0  0
  2  1  2  0  0  0  0
  2  3  1  0  0  0  0
  3  4  2  0  0  0  0
  4  5  1  0  0  0  0
  6  5  2  0  0  0  0
  7  1  1  0  0  0  0
  7 10  1  0  0  0  0
  8  7  2  0  0  0  0
  9  7  2  0  0  0  0
 10 11  1  0  0  0  0
 13 12  1  1  0  0  0
 14 13  1  0  0  0  0
 15 10  1  1  0  0  0
 15 14  1  0  0  0  0
 15 13  1  0  0  0  0
 16  5  1  6  0  0  0
 16 17  1  0  0  0  0
 18 16  1  0  0  0  0
 18 19  1  0  0  0  0
 20 18  1  0  0  0  0
 21 18  1  0  0  0  0
M  END
>  <MODEL>
4

>  <REMARK>
  Name = ZINC52295391
                            x       y       z     vdW  Elec       q    Type
                         _______ _______ _______ _____ _____    ______ ____

>  <TORSDO>
F 5

>  <minimizedAffinity>
-6.789322221167625

$$$$
ZINC52295391
 OpenBabel10211215043D

 21 22  0  0  1  0  0  0  0  0999 V2000
   51.3190   53.3040   20.9450 C   0  0  0  0  0  0  0  0  0  0  0  0
   51.8420   52.2230   21.6300 C   0  0  0  0  0  0  0  0  0  0  0  0
   51.6370   50.9410   21.1590 C   0  0  0  0  0  0  0  0  0  0  0  0
   50.9070   50.7370   20.0030 C   0  0  0  0  0  0  0  0  0  0  0  0
   50.3830   51.8170   19.3180 C   0  0  0  0  0  0  0  0  0  0  0  0
   50.5840   53.1010   19.7910 C   0  0  0  0  0  0  0  0  0  0  0  0
   51.5820   54.9390   21.5440 S   0  0  0  0  0  0  0  0  0  0  0  0
   51.7910   54.8300   22.9460 O   0  0  0  0  0  0  0  0  0  0  0  0
   52.5330   55.5420   20.6770 O   0  0  0  0  0  0  0  0  0  0  0  0
   50.1630   55.7690   21.3410 N   0  0  0  0  0  0  0  0  0  0  0  0
   49.3160   55.2970   21.3770 H   0  0  0  0  0  0  0  0  0  0  0  0
   47.7660   56.9280   20.1570 C   0  0  0  0  0  0  0  0  0  0  0  0
   48.9410   57.8500   20.4870 C   0  0  1  0  0  0  0  0  0  0  0  0
   49.2630   58.0840   21.9640 C   0  0  0  0  0  0  0  0  0  0  0  0
   50.1870   57.2150   21.1080 C   0  0  1  0  0  0  0  0  0  0  0  0
   49.5870   51.5960   18.0570 C   0  0  1  0  0  0  0  0  0  0  0  0
   48.9450   52.9140   17.6210 C   0  0  0  0  0  0  0  0  0  0  0  0
   50.4770   51.1100   16.9950 N   0  0  0  0  0  0  0  0  0  0  0  0
   51.1700   50.4940   17.3930 H   0  0  0  0  0  0  0  0  0  0  0  0
   50.9360   51.8940   16.5560 H   0  0  0  0  0  0  0  0  0  0  0  0
   49.6900   50.3790   15.9930 C   0  0  0  0  0  0  0  0  0  0  0  0
  1  7  1  0  0  0  0
  1  2  2  0  0  0  0
  3  2  1  0  0  0  0
  4  3  2  0  0  0  0
  5  6  2  0  0  0  0
  5  4  1  0  0  0  0
  6  1  1  0  0  0  0
  7  8  2  0  0  0  0
  9  7  2  0  0  0  0
 10 11  1  0  0  0  0
 10  7  1  0  0  0  0
 13 12  1  1  0  0  0
 13 15  1  0  0  0  0
 13 14  1  0  0  0  0
 15 10  1  1  0  0  0
 15 14  1  0  0  0  0
 16 18  1  6  0  0  0
 16  5  1  0  0  0  0
 17 16  1  0  0  0  0
 18 19  1  0  0  0  0
 20 18  1  0  0  0  0
 21 18  1  0  0  0  0
M  END
>  <MODEL>
5

>  <REMARK>
  Name = ZINC52295391
                            x       y       z     vdW  Elec       q    Type
                         _______ _______ _______ _____ _____    ______ ____

>  <TORSDO>
F 5

>  <minimizedAffinity>
-6.7212160720836485

$$$$
ZINC52295391
 OpenBabel10211215043D

 21 22  0  0  1  0  0  0  0  0999 V2000
   50.9590   54.6030   21.0370 C   0  0  0  0  0  0  0  0  0  0  0  0
   51.5780   55.4290   21.9570 C   0  0  0  0  0  0  0  0  0  0  0  0
   51.0360   56.6660   22.2500 C   0  0  0  0  0  0  0  0  0  0  0  0
   49.8750   57.0790   21.6220 C   0  0  0  0  0  0  0  0  0  0  0  0
   49.2570   56.2540   20.7020 C   0  0  0  0  0  0  0  0  0  0  0  0
   49.8010   55.0180   20.4050 C   0  0  0  0  0  0  0  0  0  0  0  0
   51.6480   53.0260   20.6640 S   0  0  0  0  0  0  0  0  0  0  0  0
   52.6700   53.2460   19.7020 O   0  0  0  0  0  0  0  0  0  0  0  0
   51.9000   52.3880   21.9090 O   0  0  0  0  0  0  0  0  0  0  0  0
   50.4690   52.1430   19.9080 N   0  0  0  0  0  0  0  0  0  0  0  0
   49.7630   51.7290   20.4300 H   0  0  0  0  0  0  0  0  0  0  0  0
   49.3840   49.6500   18.8580 C   0  0  0  0  0  0  0  0  0  0  0  0
   49.9270   50.6870   17.8730 C   0  0  1  0  0  0  0  0  0  0  0  0
   49.1460   51.9940   17.7200 C   0  0  0  0  0  0  0  0  0  0  0  0
   50.4910   51.9870   18.4520 C   0  0  1  0  0  0  0  0  0  0  0  0
   47.9920   56.7050   20.0170 C   0  0  1  0  0  0  0  0  0  0  0  0
   47.5040   58.0080   20.6530 C   0  0  0  0  0  0  0  0  0  0  0  0
   48.2590   56.9270   18.5900 N   0  0  0  0  0  0  0  0  0  0  0  0
   47.8620   56.1710   18.0530 H   0  0  0  0  0  0  0  0  0  0  0  0
   49.2560   56.9620   18.4370 H   0  0  0  0  0  0  0  0  0  0  0  0
   47.6530   58.1980   18.1710 C   0  0  0  0  0  0  0  0  0  0  0  0
  1  2  2  0  0  0  0
  2  3  1  0  0  0  0
  4  3  2  0  0  0  0
  5  4  1  0  0  0  0
  6  5  2  0  0  0  0
  6  1  1  0  0  0  0
  7  1  1  0  0  0  0
  7  9  2  0  0  0  0
  8  7  2  0  0  0  0
 10 11  1  0  0  0  0
 10  7  1  0  0  0  0
 13 15  1  0  0  0  0
 13 12  1  1  0  0  0
 14 13  1  0  0  0  0
 14 15  1  0  0  0  0
 15 10  1  1  0  0  0
 16 18  1  6  0  0  0
 16 17  1  0  0  0  0
 16  5  1  0  0  0  0
 19 18  1  0  0  0  0
 20 18  1  0  0  0  0
 21 18  1  0  0  0  0
M  END
>  <MODEL>
6

>  <REMARK>
  Name = ZINC52295391
                            x       y       z     vdW  Elec       q    Type
                         _______ _______ _______ _____ _____    ______ ____

>  <TORSDO>
F 5

>  <minimizedAffinity>
-6.6772396759503598

$$$$
ZINC52295391
 OpenBabel10211215043D

 21 22  0  0  1  0  0  0  0  0999 V2000
   50.5160   51.6430   19.3460 C   0  0  0  0  0  0  0  0  0  0  0  0
   51.1010   51.2390   20.5320 C   0  0  0  0  0  0  0  0  0  0  0  0
   50.9600   49.9340   20.9620 C   0  0  0  0  0  0  0  0  0  0  0  0
   50.2330   49.0310   20.2080 C   0  0  0  0  0  0  0  0  0  0  0  0
   49.6480   49.4350   19.0230 C   0  0  0  0  0  0  0  0  0  0  0  0
   49.7850   50.7420   18.5930 C   0  0  0  0  0  0  0  0  0  0  0  0
   50.6970   53.3070   18.7960 S   0  0  0  0  0  0  0  0  0  0  0  0
   52.0500   53.4560   18.3880 O   0  0  0  0  0  0  0  0  0  0  0  0
   49.6060   53.5680   17.9240 O   0  0  0  0  0  0  0  0  0  0  0  0
   50.4910   54.2840   20.1170 N   0  0  0  0  0  0  0  0  0  0  0  0
   49.5970   54.5340   20.4010 H   0  0  0  0  0  0  0  0  0  0  0  0
   50.1440   56.7760   21.5880 C   0  0  0  0  0  0  0  0  0  0  0  0
   51.5030   56.0760   21.6400 C   0  0  1  0  0  0  0  0  0  0  0  0
   51.5840   54.7430   22.3880 C   0  0  0  0  0  0  0  0  0  0  0  0
   51.6570   54.7690   20.8590 C   0  0  1  0  0  0  0  0  0  0  0  0
   48.8570   48.4510   18.2000 C   0  0  1  0  0  0  0  0  0  0  0  0
   47.3630   48.7460   18.3500 C   0  0  0  0  0  0  0  0  0  0  0  0
   49.2400   48.5740   16.7870 N   0  0  0  0  0  0  0  0  0  0  0  0
   49.9020   47.8500   16.5540 H   0  0  0  0  0  0  0  0  0  0  0  0
   49.6610   49.4780   16.6300 H   0  0  0  0  0  0  0  0  0  0  0  0
   48.0450   48.4360   15.9430 C   0  0  0  0  0  0  0  0  0  0  0  0
  1  2  2  0  0  0  0
  2  3  1  0  0  0  0
  4  3  2  0  0  0  0
  5  4  1  0  0  0  0
  6  5  2  0  0  0  0
  6  1  1  0  0  0  0
  7  1  1  0  0  0  0
  7 10  1  0  0  0  0
  8  7  2  0  0  0  0
  9  7  2  0  0  0  0
 10 11  1  0  0  0  0
 13 12  1  6  0  0  0
 13 14  1  0  0  0  0
 15 10  1  1  0  0  0
 15 13  1  0  0  0  0
 15 14  1  0  0  0  0
 16 18  1  6  0  0  0
 16 17  1  0  0  0  0
 16  5  1  0  0  0  0
 19 18  1  0  0  0  0
 20 18  1  0  0  0  0
 21 18  1  0  0  0  0
M  END
>  <MODEL>
7

>  <REMARK>
  Name = ZINC52295391
                            x       y       z     vdW  Elec       q    Type
                         _______ _______ _______ _____ _____    ______ ____

>  <TORSDO>
F 5

>  <minimizedAffinity>
-6.6483067614320701

$$$$
ZINC52295391
 OpenBabel10211215043D

 21 22  0  0  1  0  0  0  0  0999 V2000
   49.4580   53.0110   18.1740 C   0  0  0  0  0  0  0  0  0  0  0  0
   48.4470   53.4420   17.3340 C   0  0  0  0  0  0  0  0  0  0  0  0
   47.5540   52.5310   16.8040 C   0  0  0  0  0  0  0  0  0  0  0  0
   47.6710   51.1880   17.1110 C   0  0  0  0  0  0  0  0  0  0  0  0
   48.6810   50.7570   17.9490 C   0  0  0  0  0  0  0  0  0  0  0  0
   49.5780   51.6670   18.4770 C   0  0  0  0  0  0  0  0  0  0  0  0
   50.5970   54.1720   18.8510 S   0  0  0  0  0  0  0  0  0  0  0  0
   51.8920   53.7630   18.4320 O   0  0  0  0  0  0  0  0  0  0  0  0
   50.0770   55.4630   18.5680 O   0  0  0  0  0  0  0  0  0  0  0  0
   50.5550   53.9940   20.4970 N   0  0  0  0  0  0  0  0  0  0  0  0
   49.7540   53.6560   20.9290 H   0  0  0  0  0  0  0  0  0  0  0  0
   50.5030   56.6100   21.7790 C   0  0  0  0  0  0  0  0  0  0  0  0
   51.7270   55.7150   21.9870 C   0  0  1  0  0  0  0  0  0  0  0  0
   51.5390   54.4440   22.8190 C   0  0  0  0  0  0  0  0  0  0  0  0
   51.7270   54.3470   21.3020 C   0  0  1  0  0  0  0  0  0  0  0  0
   48.8090   49.2930   18.2850 C   0  0  1  0  0  0  0  0  0  0  0  0
   47.4380   48.7380   18.6770 C   0  0  0  0  0  0  0  0  0  0  0  0
   49.3150   48.5640   17.1140 N   0  0  0  0  0  0  0  0  0  0  0  0
   50.2590   48.2580   17.2910 H   0  0  0  0  0  0  0  0  0  0  0  0
   49.3030   49.1730   16.3080 H   0  0  0  0  0  0  0  0  0  0  0  0
   48.4610   47.3960   16.8580 C   0  0  0  0  0  0  0  0  0  0  0  0
  1  6  1  0  0  0  0
  1  7  1  0  0  0  0
  2  1  2  0  0  0  0
  3  4  2  0  0  0  0
  3  2  1  0  0  0  0
  4  5  1  0  0  0  0
  5 16  1  0  0  0  0
  5  6  2  0  0  0  0
  7 10  1  0  0  0  0
  8  7  2  0  0  0  0
  9  7  2  0  0  0  0
 10 11  1  0  0  0  0
 13 12  1  6  0  0  0
 13 14  1  0  0  0  0
 15 10  1  1  0  0  0
 15 13  1  0  0  0  0
 15 14  1  0  0  0  0
 16 18  1  6  0  0  0
 16 17  1  0  0  0  0
 18 19  1  0  0  0  0
 20 18  1  0  0  0  0
 21 18  1  0  0  0  0
M  END
>  <MODEL>
8

>  <REMARK>
  Name = ZINC52295391
                            x       y       z     vdW  Elec       q    Type
                         _______ _______ _______ _____ _____    ______ ____

>  <TORSDO>
F 5

>  <minimizedAffinity>
-6.5984360677294553

$$$$
ZINC52295391
 OpenBabel10211215043D

 21 22  0  0  1  0  0  0  0  0999 V2000
   49.4300   50.4620   18.4770 C   0  0  0  0  0  0  0  0  0  0  0  0
   49.1550   51.6570   17.8380 C   0  0  0  0  0  0  0  0  0  0  0  0
   47.9920   51.7980   17.1060 C   0  0  0  0  0  0  0  0  0  0  0  0
   47.1020   50.7440   17.0110 C   0  0  0  0  0  0  0  0  0  0  0  0
   47.3770   49.5490   17.6480 C   0  0  0  0  0  0  0  0  0  0  0  0
   48.5430   49.4050   18.3780 C   0  0  0  0  0  0  0  0  0  0  0  0
   50.9120   50.2820   19.4110 S   0  0  0  0  0  0  0  0  0  0  0  0
   50.8960   48.9670   19.9490 O   0  0  0  0  0  0  0  0  0  0  0  0
   51.9700   50.7560   18.5910 O   0  0  0  0  0  0  0  0  0  0  0  0
   50.8080   51.3200   20.6980 N   0  0  0  0  0  0  0  0  0  0  0  0
   50.0880   51.2250   21.3410 H   0  0  0  0  0  0  0  0  0  0  0  0
   49.8450   54.0540   20.3940 C   0  0  0  0  0  0  0  0  0  0  0  0
   51.3250   53.8280   20.7100 C   0  0  1  0  0  0  0  0  0  0  0  0
   51.6770   53.2830   22.0950 C   0  0  0  0  0  0  0  0  0  0  0  0
   51.8030   52.3830   20.8640 C   0  0  1  0  0  0  0  0  0  0  0  0
   46.4070   48.3990   17.5450 C   0  0  1  0  0  0  0  0  0  0  0  0
   46.0960   47.8670   18.9450 C   0  0  0  0  0  0  0  0  0  0  0  0
   45.1660   48.8610   16.9090 N   0  0  0  0  0  0  0  0  0  0  0  0
   45.2700   49.8260   16.6320 H   0  0  0  0  0  0  0  0  0  0  0  0
   44.4030   48.7800   17.5640 H   0  0  0  0  0  0  0  0  0  0  0  0
   44.8870   48.0380   15.7260 C   0  0  0  0  0  0  0  0  0  0  0  0
  1  7  1  0  0  0  0
  2  1  2  0  0  0  0
  3  2  1  0  0  0  0
  4  3  2  0  0  0  0
  4  5  1  0  0  0  0
  5  6  2  0  0  0  0
  6  1  1  0  0  0  0
  7  8  2  0  0  0  0
  7 10  1  0  0  0  0
  9  7  2  0  0  0  0
 10 11  1  0  0  0  0
 13 12  1  1  0  0  0
 13 15  1  0  0  0  0
 13 14  1  0  0  0  0
 15 10  1  1  0  0  0
 15 14  1  0  0  0  0
 16 18  1  1  0  0  0
 16  5  1  0  0  0  0
 16 17  1  0  0  0  0
 18 20  1  0  0  0  0
 19 18  1  0  0  0  0
 21 18  1  0  0  0  0
M  END
>  <MODEL>
9

>  <REMARK>
  Name = ZINC52295391
                            x       y       z     vdW  Elec       q    Type
                         _______ _______ _______ _____ _____    ______ ____

>  <TORSDO>
F 5

>  <minimizedAffinity>
-6.5877432886818914

$$$$
ZINC41097578
 OpenBabel10211215053D

 24 25  0  0  1  0  0  0  0  0999 V2000
   48.8750   53.1950   18.5260 O   0  0  0  0  0  0  0  0  0  0  0  0
   47.7480   53.6080   16.4280 C   0  0  0  0  0  0  0  0  0  0  0  0
   48.8760   52.8560   17.1380 C   0  0  2  0  0  0  0  0  0  0  0  0
   48.6660   51.3720   16.9830 C   0  0  0  0  0  0  0  0  0  0  0  0
   47.5010   50.8130   17.3660 N   0  0  0  0  0  0  0  0  0  0  0  0
   46.7970   51.3670   17.7410 H   0  0  0  0  0  0  0  0  0  0  0  0
   49.5450   50.6810   16.5140 O   0  0  0  0  0  0  0  0  0  0  0  0
   47.2960   49.3710   17.2150 C   0  0  0  0  0  0  0  0  0  0  0  0
   45.8550   49.0870   16.7420 C   0  0  0  0  0  0  0  0  0  0  0  0
   45.4590   47.7900   17.4910 C   0  0  0  0  0  0  0  0  0  0  0  0
   46.1100   47.9860   18.8820 C   0  0  0  0  0  0  0  0  0  0  0  0
   47.4590   48.6700   18.5750 C   0  0  0  0  0  0  0  0  0  0  0  0
   49.8830   53.9750   18.9660 C   0  0  0  0  0  0  0  0  0  0  0  0
   51.0290   53.7160   18.6600 O   0  0  0  0  0  0  0  0  0  0  0  0
   49.5920   55.1440   19.8190 C   0  0  0  0  0  0  0  0  0  0  0  0
   48.4000   55.8540   19.6520 C   0  0  0  0  0  0  0  0  0  0  0  0
   48.1300   56.9450   20.4510 C   0  0  0  0  0  0  0  0  0  0  0  0
   49.0380   57.3420   21.4200 C   0  0  0  0  0  0  0  0  0  0  0  0
   48.7670   58.4120   22.1980 F   0  0  0  0  0  0  0  0  0  0  0  0
   50.2280   56.6400   21.5920 C   0  0  0  0  0  0  0  0  0  0  0  0
   50.5040   55.5390   20.7990 C   0  0  0  0  0  0  0  0  0  0  0  0
   51.1420   57.0440   22.5720 N   0  0  0  0  0  0  0  0  0  0  0  0
   51.4320   57.9690   22.6120 H   0  0  0  0  0  0  0  0  0  0  0  0
   51.4870   56.4000   23.2090 H   0  0  0  0  0  0  0  0  0  0  0  0
  1 13  1  0  0  0  0
  3  2  1  1  0  0  0
  3  1  1  0  0  0  0
  4  3  1  0  0  0  0
  4  5  1  0  0  0  0
  5  6  1  0  0  0  0
  7  4  2  0  0  0  0
  8  5  1  0  0  0  0
  8 12  1  0  0  0  0
  9  8  1  0  0  0  0
  9 10  1  0  0  0  0
 10 11  1  0  0  0  0
 12 11  1  0  0  0  0
 13 15  1  0  0  0  0
 14 13  2  0  0  0  0
 15 21  1  0  0  0  0
 16 15  2  0  0  0  0
 16 17  1  0  0  0  0
 17 18  2  0  0  0  0
 18 20  1  0  0  0  0
 18 19  1  0  0  0  0
 20 22  1  0  0  0  0
 21 20  2  0  0  0  0
 22 23  1  0  0  0  0
 22 24  1  0  0  0  0
M  END
>  <MODEL>
1

>  <REMARK>
  Name = ZINC41097578
                            x       y       z     vdW  Elec       q    Type
                         _______ _______ _______ _____ _____    ______ ____

>  <TORSDO>
F 6

>  <minimizedAffinity>
-8.0227874996119741

$$$$
ZINC41097578
 OpenBabel10211215053D

 24 25  0  0  1  0  0  0  0  0999 V2000
   50.5170   53.9520   18.4530 O   0  0  0  0  0  0  0  0  0  0  0  0
   52.4870   52.6730   19.0200 C   0  0  0  0  0  0  0  0  0  0  0  0
   50.9590   52.7320   19.0520 C   0  0  2  0  0  0  0  0  0  0  0  0
   50.3940   51.5640   18.2860 C   0  0  0  0  0  0  0  0  0  0  0  0
   49.1290   51.1580   18.5120 N   0  0  0  0  0  0  0  0  0  0  0  0
   48.5810   51.6190   19.1670 H   0  0  0  0  0  0  0  0  0  0  0  0
   51.0780   50.9880   17.4670 O   0  0  0  0  0  0  0  0  0  0  0  0
   48.5790   50.0230   17.7670 C   0  0  0  0  0  0  0  0  0  0  0  0
   47.1880   50.3810   17.2060 C   0  0  0  0  0  0  0  0  0  0  0  0
   46.3770   49.0680   17.3370 C   0  0  0  0  0  0  0  0  0  0  0  0
   46.8720   48.4930   18.6880 C   0  0  0  0  0  0  0  0  0  0  0  0
   48.3790   48.8220   18.7080 C   0  0  0  0  0  0  0  0  0  0  0  0
   49.3160   54.4250   18.8430 C   0  0  0  0  0  0  0  0  0  0  0  0
   48.2970   53.9340   18.4010 O   0  0  0  0  0  0  0  0  0  0  0  0
   49.2410   55.5390   19.8080 C   0  0  0  0  0  0  0  0  0  0  0  0
   48.1370   56.3950   19.8050 C   0  0  0  0  0  0  0  0  0  0  0  0
   48.0680   57.4350   20.7090 C   0  0  0  0  0  0  0  0  0  0  0  0
   49.0920   57.6360   21.6200 C   0  0  0  0  0  0  0  0  0  0  0  0
   49.0180   58.6570   22.5020 F   0  0  0  0  0  0  0  0  0  0  0  0
   50.1960   56.7880   21.6300 C   0  0  0  0  0  0  0  0  0  0  0  0
   50.2700   55.7370   20.7310 C   0  0  0  0  0  0  0  0  0  0  0  0
   51.2280   56.9940   22.5520 N   0  0  0  0  0  0  0  0  0  0  0  0
   51.7110   56.2350   22.9160 H   0  0  0  0  0  0  0  0  0  0  0  0
   51.4590   57.8940   22.8280 H   0  0  0  0  0  0  0  0  0  0  0  0
  1 13  1  0  0  0  0
  1  3  1  0  0  0  0
  2  3  1  0  0  0  0
  3  4  1  6  0  0  0
  4  5  1  0  0  0  0
  5  6  1  0  0  0  0
  7  4  2  0  0  0  0
  8  5  1  0  0  0  0
  8 12  1  0  0  0  0
  9 10  1  0  0  0  0
  9  8  1  0  0  0  0
 10 11  1  0  0  0  0
 11 12  1  0  0  0  0
 13 15  1  0  0  0  0
 14 13  2  0  0  0  0
 15 21  1  0  0  0  0
 16 15  2  0  0  0  0
 16 17  1  0  0  0  0
 17 18  2  0  0  0  0
 18 20  1  0  0  0  0
 18 19  1  0  0  0  0
 20 22  1  0  0  0  0
 21 20  2  0  0  0  0
 22 24  1  0  0  0  0
 22 23  1  0  0  0  0
M  END
>  <MODEL>
2

>  <REMARK>
  Name = ZINC41097578
                            x       y       z     vdW  Elec       q    Type
                         _______ _______ _______ _____ _____    ______ ____

>  <TORSDO>
F 6

>  <minimizedAffinity>
-7.9793134517048081

$$$$
ZINC41097578
 OpenBabel10211215053D

 24 25  0  0  1  0  0  0  0  0999 V2000
   50.6680   52.0200   19.6280 O   0  0  0  0  0  0  0  0  0  0  0  0
   52.1930   50.9760   18.0700 C   0  0  0  0  0  0  0  0  0  0  0  0
   51.4330   50.8360   19.3910 C   0  0  2  0  0  0  0  0  0  0  0  0
   50.5100   49.6480   19.3170 C   0  0  0  0  0  0  0  0  0  0  0  0
   49.7310   49.4660   18.2320 N   0  0  0  0  0  0  0  0  0  0  0  0
   49.7660   50.1000   17.4980 H   0  0  0  0  0  0  0  0  0  0  0  0
   50.4670   48.8550   20.2340 O   0  0  0  0  0  0  0  0  0  0  0  0
   48.8340   48.3100   18.1590 C   0  0  0  0  0  0  0  0  0  0  0  0
   48.6700   47.8590   16.6940 C   0  0  0  0  0  0  0  0  0  0  0  0
   47.1860   47.4260   16.5940 C   0  0  0  0  0  0  0  0  0  0  0  0
   46.4650   48.4720   17.4800 C   0  0  0  0  0  0  0  0  0  0  0  0
   47.4320   48.7000   18.6600 C   0  0  0  0  0  0  0  0  0  0  0  0
   51.0140   52.7690   20.6940 C   0  0  0  0  0  0  0  0  0  0  0  0
   51.7430   52.3080   21.5490 O   0  0  0  0  0  0  0  0  0  0  0  0
   50.5070   54.1490   20.8200 C   0  0  0  0  0  0  0  0  0  0  0  0
   49.3350   54.5290   20.1620 C   0  0  0  0  0  0  0  0  0  0  0  0
   48.8630   55.8190   20.2830 C   0  0  0  0  0  0  0  0  0  0  0  0
   49.5480   56.7430   21.0540 C   0  0  0  0  0  0  0  0  0  0  0  0
   49.0810   58.0060   21.1670 F   0  0  0  0  0  0  0  0  0  0  0  0
   50.7180   56.3740   21.7130 C   0  0  0  0  0  0  0  0  0  0  0  0
   51.1950   55.0790   21.6030 C   0  0  0  0  0  0  0  0  0  0  0  0
   51.4080   57.3100   22.4910 N   0  0  0  0  0  0  0  0  0  0  0  0
   51.9300   58.0060   22.0620 H   0  0  0  0  0  0  0  0  0  0  0  0
   51.3650   57.2630   23.4590 H   0  0  0  0  0  0  0  0  0  0  0  0
  1 13  1  0  0  0  0
  3  2  1  6  0  0  0
  3  1  1  0  0  0  0
  4  3  1  0  0  0  0
  4  7  2  0  0  0  0
  5  4  1  0  0  0  0
  6  5  1  0  0  0  0
  8  5  1  0  0  0  0
  8 12  1  0  0  0  0
  9  8  1  0  0  0  0
 10  9  1  0  0  0  0
 10 11  1  0  0  0  0
 11 12  1  0  0  0  0
 13 15  1  0  0  0  0
 13 14  2  0  0  0  0
 15 21  2  0  0  0  0
 16 17  2  0  0  0  0
 16 15  1  0  0  0  0
 17 18  1  0  0  0  0
 18 19  1  0  0  0  0
 18 20  2  0  0  0  0
 20 22  1  0  0  0  0
 21 20  1  0  0  0  0
 22 24  1  0  0  0  0
 23 22  1  0  0  0  0
M  END
>  <MODEL>
3

>  <REMARK>
  Name = ZINC41097578
                            x       y       z     vdW  Elec       q    Type
                         _______ _______ _______ _____ _____    ______ ____

>  <TORSDO>
F 6

>  <minimizedAffinity>
-7.7270638343458442

$$$$
ZINC41097578
 OpenBabel10211215053D

 24 25  0  0  1  0  0  0  0  0999 V2000
   48.8760   48.7530   14.8550 O   0  0  0  0  0  0  0  0  0  0  0  0
   51.0710   49.6470   14.3790 C   0  0  0  0  0  0  0  0  0  0  0  0
   49.6460   49.9560   14.8450 C   0  0  2  0  0  0  0  0  0  0  0  0
   49.6880   50.5380   16.2350 C   0  0  0  0  0  0  0  0  0  0  0  0
   50.3430   49.8870   17.2180 N   0  0  0  0  0  0  0  0  0  0  0  0
   50.7870   49.0450   17.0300 H   0  0  0  0  0  0  0  0  0  0  0  0
   49.1330   51.5890   16.4700 O   0  0  0  0  0  0  0  0  0  0  0  0
   50.3840   50.4520   18.5690 C   0  0  0  0  0  0  0  0  0  0  0  0
   51.8460   50.5840   19.0430 C   0  0  0  0  0  0  0  0  0  0  0  0
   51.7880   50.2360   20.5510 C   0  0  0  0  0  0  0  0  0  0  0  0
   50.7460   49.0910   20.5990 C   0  0  0  0  0  0  0  0  0  0  0  0
   49.6840   49.5030   19.5580 C   0  0  0  0  0  0  0  0  0  0  0  0
   47.5580   48.8680   14.5980 C   0  0  0  0  0  0  0  0  0  0  0  0
   47.1830   49.2240   13.4980 O   0  0  0  0  0  0  0  0  0  0  0  0
   46.5710   48.5610   15.6510 C   0  0  0  0  0  0  0  0  0  0  0  0
   46.3300   49.4810   16.6750 C   0  0  0  0  0  0  0  0  0  0  0  0
   45.4060   49.1920   17.6580 C   0  0  0  0  0  0  0  0  0  0  0  0
   44.7160   47.9920   17.6350 C   0  0  0  0  0  0  0  0  0  0  0  0
   43.8140   47.7150   18.6020 F   0  0  0  0  0  0  0  0  0  0  0  0
   44.9510   47.0690   16.6190 C   0  0  0  0  0  0  0  0  0  0  0  0
   45.8720   47.3530   15.6250 C   0  0  0  0  0  0  0  0  0  0  0  0
   44.2520   45.8570   16.6000 N   0  0  0  0  0  0  0  0  0  0  0  0
   44.2050   45.3120   17.4010 H   0  0  0  0  0  0  0  0  0  0  0  0
   43.8160   45.5610   15.7860 H   0  0  0  0  0  0  0  0  0  0  0  0
  3  2  1  1  0  0  0
  3  1  1  0  0  0  0
  3  4  1  0  0  0  0
  4  7  2  0  0  0  0
  4  5  1  0  0  0  0
  5  8  1  0  0  0  0
  6  5  1  0  0  0  0
  8  9  1  0  0  0  0
  8 12  1  0  0  0  0
  9 10  1  0  0  0  0
 10 11  1  0  0  0  0
 12 11  1  0  0  0  0
 13  1  1  0  0  0  0
 13 15  1  0  0  0  0
 14 13  2  0  0  0  0
 15 16  1  0  0  0  0
 16 17  2  0  0  0  0
 18 17  1  0  0  0  0
 18 19  1  0  0  0  0
 20 18  2  0  0  0  0
 21 15  2  0  0  0  0
 21 20  1  0  0  0  0
 22 20  1  0  0  0  0
 22 23  1  0  0  0  0
 24 22  1  0  0  0  0
M  END
>  <MODEL>
4

>  <REMARK>
  Name = ZINC41097578
                            x       y       z     vdW  Elec       q    Type
                         _______ _______ _______ _____ _____    ______ ____

>  <TORSDO>
F 6

>  <minimizedAffinity>
-7.6295442107431137

$$$$
ZINC41097578
 OpenBabel10211215053D

 24 25  0  0  1  0  0  0  0  0999 V2000
   50.4400   51.4520   20.0340 O   0  0  0  0  0  0  0  0  0  0  0  0
   51.9000   52.3630   21.7320 C   0  0  0  0  0  0  0  0  0  0  0  0
   51.5450   52.3340   20.2440 C   0  0  2  0  0  0  0  0  0  0  0  0
   51.1720   53.7220   19.7900 C   0  0  0  0  0  0  0  0  0  0  0  0
   50.3360   54.4730   20.5350 N   0  0  0  0  0  0  0  0  0  0  0  0
   49.9750   54.1200   21.3640 H   0  0  0  0  0  0  0  0  0  0  0  0
   51.6220   54.1640   18.7550 O   0  0  0  0  0  0  0  0  0  0  0  0
   49.9740   55.8220   20.0950 C   0  0  0  0  0  0  0  0  0  0  0  0
   49.8990   56.7730   21.3070 C   0  0  0  0  0  0  0  0  0  0  0  0
   48.7090   57.7100   20.9810 C   0  0  0  0  0  0  0  0  0  0  0  0
   47.6950   56.7530   20.3060 C   0  0  0  0  0  0  0  0  0  0  0  0
   48.5730   55.8100   19.4570 C   0  0  0  0  0  0  0  0  0  0  0  0
   50.3370   50.8800   18.8190 C   0  0  0  0  0  0  0  0  0  0  0  0
   51.3370   50.6600   18.1640 O   0  0  0  0  0  0  0  0  0  0  0  0
   49.0100   50.5180   18.2840 C   0  0  0  0  0  0  0  0  0  0  0  0
   48.3380   51.3920   17.4260 C   0  0  0  0  0  0  0  0  0  0  0  0
   47.0980   51.0520   16.9270 C   0  0  0  0  0  0  0  0  0  0  0  0
   46.5140   49.8450   17.2740 C   0  0  0  0  0  0  0  0  0  0  0  0
   45.2990   49.5180   16.7820 F   0  0  0  0  0  0  0  0  0  0  0  0
   47.1760   48.9680   18.1290 C   0  0  0  0  0  0  0  0  0  0  0  0
   48.4240   49.2990   18.6300 C   0  0  0  0  0  0  0  0  0  0  0  0
   46.5820   47.7500   18.4780 N   0  0  0  0  0  0  0  0  0  0  0  0
   47.1020   47.0720   18.9400 H   0  0  0  0  0  0  0  0  0  0  0  0
   45.6530   47.5820   18.2580 H   0  0  0  0  0  0  0  0  0  0  0  0
  1  3  1  0  0  0  0
  3  4  1  1  0  0  0
  3  2  1  0  0  0  0
  4  5  1  0  0  0  0
  5  6  1  0  0  0  0
  7  4  2  0  0  0  0
  8  5  1  0  0  0  0
  8  9  1  0  0  0  0
 10  9  1  0  0  0  0
 11 10  1  0  0  0  0
 12  8  1  0  0  0  0
 12 11  1  0  0  0  0
 13  1  1  0  0  0  0
 14 13  2  0  0  0  0
 15 21  1  0  0  0  0
 15 13  1  0  0  0  0
 16 15  2  0  0  0  0
 17 18  2  0  0  0  0
 17 16  1  0  0  0  0
 18 20  1  0  0  0  0
 19 18  1  0  0  0  0
 20 22  1  0  0  0  0
 20 21  2  0  0  0  0
 22 23  1  0  0  0  0
 24 22  1  0  0  0  0
M  END
>  <MODEL>
5

>  <REMARK>
  Name = ZINC41097578
                            x       y       z     vdW  Elec       q    Type
                         _______ _______ _______ _____ _____    ______ ____

>  <TORSDO>
F 6

>  <minimizedAffinity>
-7.5175330185577245

$$$$
ZINC41097578
 OpenBabel10211215053D

 24 25  0  0  1  0  0  0  0  0999 V2000
   50.4770   52.9300   18.7820 O   0  0  0  0  0  0  0  0  0  0  0  0
   51.5190   51.0020   17.7620 C   0  0  0  0  0  0  0  0  0  0  0  0
   50.2770   51.5510   18.4670 C   0  0  2  0  0  0  0  0  0  0  0  0
   49.0820   51.4120   17.5590 C   0  0  0  0  0  0  0  0  0  0  0  0
   48.4190   50.2400   17.4920 N   0  0  0  0  0  0  0  0  0  0  0  0
   48.7100   49.4860   18.0290 H   0  0  0  0  0  0  0  0  0  0  0  0
   48.7170   52.3540   16.8880 O   0  0  0  0  0  0  0  0  0  0  0  0
   47.2570   50.1060   16.6100 C   0  0  0  0  0  0  0  0  0  0  0  0
   46.0460   49.5780   17.4060 C   0  0  0  0  0  0  0  0  0  0  0  0
   45.3240   48.6300   16.4170 C   0  0  0  0  0  0  0  0  0  0  0  0
   46.5020   47.9450   15.6790 C   0  0  0  0  0  0  0  0  0  0  0  0
   47.5470   49.0680   15.5110 C   0  0  0  0  0  0  0  0  0  0  0  0
   50.3260   53.2900   20.0720 C   0  0  0  0  0  0  0  0  0  0  0  0
   50.5770   52.4970   20.9580 O   0  0  0  0  0  0  0  0  0  0  0  0
   49.8560   54.6480   20.4080 C   0  0  0  0  0  0  0  0  0  0  0  0
   48.6570   55.1270   19.8740 C   0  0  0  0  0  0  0  0  0  0  0  0
   48.2200   56.3970   20.1900 C   0  0  0  0  0  0  0  0  0  0  0  0
   48.9660   57.2010   21.0360 C   0  0  0  0  0  0  0  0  0  0  0  0
   48.5320   58.4440   21.3400 F   0  0  0  0  0  0  0  0  0  0  0  0
   50.1620   56.7320   21.5720 C   0  0  0  0  0  0  0  0  0  0  0  0
   50.6060   55.4570   21.2650 C   0  0  0  0  0  0  0  0  0  0  0  0
   50.9140   57.5480   22.4250 N   0  0  0  0  0  0  0  0  0  0  0  0
   50.4700   58.2130   22.9750 H   0  0  0  0  0  0  0  0  0  0  0  0
   51.8770   57.4500   22.4660 H   0  0  0  0  0  0  0  0  0  0  0  0
  1 13  1  0  0  0  0
  2  3  1  0  0  0  0
  3  4  1  6  0  0  0
  3  1  1  0  0  0  0
  5  4  1  0  0  0  0
  5  6  1  0  0  0  0
  7  4  2  0  0  0  0
  8  9  1  0  0  0  0
  8  5  1  0  0  0  0
 10  9  1  0  0  0  0
 11 10  1  0  0  0  0
 12 11  1  0  0  0  0
 12  8  1  0  0  0  0
 13 15  1  0  0  0  0
 13 14  2  0  0  0  0
 15 21  2  0  0  0  0
 16 17  2  0  0  0  0
 16 15  1  0  0  0  0
 17 18  1  0  0  0  0
 18 19  1  0  0  0  0
 18 20  2  0  0  0  0
 20 22  1  0  0  0  0
 21 20  1  0  0  0  0
 22 24  1  0  0  0  0
 22 23  1  0  0  0  0
M  END
>  <MODEL>
6

>  <REMARK>
  Name = ZINC41097578
                            x       y       z     vdW  Elec       q    Type
                         _______ _______ _______ _____ _____    ______ ____

>  <TORSDO>
F 6

>  <minimizedAffinity>
-7.505342616653123

$$$$
ZINC41097578
 OpenBabel10211215053D

 24 25  0  0  1  0  0  0  0  0999 V2000
   50.4190   53.9010   18.9180 O   0  0  0  0  0  0  0  0  0  0  0  0
   52.6250   52.9760   18.5770 C   0  0  0  0  0  0  0  0  0  0  0  0
   51.2060   52.7200   19.0870 C   0  0  2  0  0  0  0  0  0  0  0  0
   50.5870   51.5890   18.3060 C   0  0  0  0  0  0  0  0  0  0  0  0
   49.2980   51.2540   18.5130 N   0  0  0  0  0  0  0  0  0  0  0  0
   48.7680   51.7420   19.1630 H   0  0  0  0  0  0  0  0  0  0  0  0
   51.2490   50.9800   17.4940 O   0  0  0  0  0  0  0  0  0  0  0  0
   48.6960   50.1550   17.7540 C   0  0  0  0  0  0  0  0  0  0  0  0
   47.2840   50.5520   17.2760 C   0  0  0  0  0  0  0  0  0  0  0  0
   46.4610   49.2460   17.3980 C   0  0  0  0  0  0  0  0  0  0  0  0
   47.0130   48.6140   18.7000 C   0  0  0  0  0  0  0  0  0  0  0  0
   48.5240   48.9220   18.6580 C   0  0  0  0  0  0  0  0  0  0  0  0
   50.0720   54.5700   20.0350 C   0  0  0  0  0  0  0  0  0  0  0  0
   50.3860   54.1350   21.1250 O   0  0  0  0  0  0  0  0  0  0  0  0
   49.3110   55.8310   19.9340 C   0  0  0  0  0  0  0  0  0  0  0  0
   49.1260   56.6300   21.0640 C   0  0  0  0  0  0  0  0  0  0  0  0
   48.4160   57.8090   20.9670 C   0  0  0  0  0  0  0  0  0  0  0  0
   47.8830   58.2030   19.7510 C   0  0  0  0  0  0  0  0  0  0  0  0
   47.1880   59.3580   19.6630 F   0  0  0  0  0  0  0  0  0  0  0  0
   48.0630   57.4120   18.6190 C   0  0  0  0  0  0  0  0  0  0  0  0
   48.7800   56.2310   18.7060 C   0  0  0  0  0  0  0  0  0  0  0  0
   47.5230   57.8140   17.3920 N   0  0  0  0  0  0  0  0  0  0  0  0
   46.9270   58.5790   17.3520 H   0  0  0  0  0  0  0  0  0  0  0  0
   47.7430   57.3280   16.5830 H   0  0  0  0  0  0  0  0  0  0  0  0
  1  3  1  0  0  0  0
  1 13  1  0  0  0  0
  2  3  1  0  0  0  0
  3  4  1  6  0  0  0
  4  5  1  0  0  0  0
  5  6  1  0  0  0  0
  7  4  2  0  0  0  0
  8  5  1  0  0  0  0
  8 12  1  0  0  0  0
  9 10  1  0  0  0  0
  9  8  1  0  0  0  0
 10 11  1  0  0  0  0
 12 11  1  0  0  0  0
 13 14  2  0  0  0  0
 15 13  1  0  0  0  0
 15 16  2  0  0  0  0
 17 16  1  0  0  0  0
 18 17  2  0  0  0  0
 19 18  1  0  0  0  0
 20 21  2  0  0  0  0
 20 18  1  0  0  0  0
 21 15  1  0  0  0  0
 22 20  1  0  0  0  0
 23 22  1  0  0  0  0
 24 22  1  0  0  0  0
M  END
>  <MODEL>
7

>  <REMARK>
  Name = ZINC41097578
                            x       y       z     vdW  Elec       q    Type
                         _______ _______ _______ _____ _____    ______ ____

>  <TORSDO>
F 6

>  <minimizedAffinity>
-7.4040465002704199

$$$$
ZINC41097578
 OpenBabel10211215053D

 24 25  0  0  1  0  0  0  0  0999 V2000
   50.4780   52.5540   19.9710 O   0  0  0  0  0  0  0  0  0  0  0  0
   51.6120   53.0160   22.0550 C   0  0  0  0  0  0  0  0  0  0  0  0
   51.5270   53.3260   20.5590 C   0  0  2  0  0  0  0  0  0  0  0  0
   51.2400   54.7930   20.3650 C   0  0  0  0  0  0  0  0  0  0  0  0
   49.9900   55.2640   20.5450 N   0  0  0  0  0  0  0  0  0  0  0  0
   49.2760   54.6600   20.8000 H   0  0  0  0  0  0  0  0  0  0  0  0
   52.1330   55.5490   20.0470 O   0  0  0  0  0  0  0  0  0  0  0  0
   49.7110   56.6900   20.3580 C   0  0  0  0  0  0  0  0  0  0  0  0
   49.6010   57.3930   21.7260 C   0  0  0  0  0  0  0  0  0  0  0  0
   48.4730   58.4350   21.5280 C   0  0  0  0  0  0  0  0  0  0  0  0
   47.4640   57.6800   20.6260 C   0  0  0  0  0  0  0  0  0  0  0  0
   48.3530   56.8740   19.6570 C   0  0  0  0  0  0  0  0  0  0  0  0
   50.7000   52.0610   18.7360 C   0  0  0  0  0  0  0  0  0  0  0  0
   51.7650   52.2580   18.1860 O   0  0  0  0  0  0  0  0  0  0  0  0
   49.6490   51.2810   18.0550 C   0  0  0  0  0  0  0  0  0  0  0  0
   48.5630   51.9330   17.4650 C   0  0  0  0  0  0  0  0  0  0  0  0
   47.5830   51.2010   16.8280 C   0  0  0  0  0  0  0  0  0  0  0  0
   47.6700   49.8200   16.7700 C   0  0  0  0  0  0  0  0  0  0  0  0
   46.7060   49.1100   16.1440 F   0  0  0  0  0  0  0  0  0  0  0  0
   48.7480   49.1620   17.3550 C   0  0  0  0  0  0  0  0  0  0  0  0
   49.7400   49.8890   17.9910 C   0  0  0  0  0  0  0  0  0  0  0  0
   48.8330   47.7670   17.2940 N   0  0  0  0  0  0  0  0  0  0  0  0
   49.1200   47.2640   18.0730 H   0  0  0  0  0  0  0  0  0  0  0  0
   48.6060   47.3020   16.4740 H   0  0  0  0  0  0  0  0  0  0  0  0
  3  1  1  1  0  0  0
  3  2  1  0  0  0  0
  4  5  1  0  0  0  0
  4  3  1  0  0  0  0
  5  6  1  0  0  0  0
  7  4  2  0  0  0  0
  8  5  1  0  0  0  0
  8  9  1  0  0  0  0
 10  9  1  0  0  0  0
 11 10  1  0  0  0  0
 12  8  1  0  0  0  0
 12 11  1  0  0  0  0
 13  1  1  0  0  0  0
 14 13  2  0  0  0  0
 15 13  1  0  0  0  0
 16 15  2  0  0  0  0
 17 16  1  0  0  0  0
 18 17  2  0  0  0  0
 18 20  1  0  0  0  0
 19 18  1  0  0  0  0
 20 21  2  0  0  0  0
 21 15  1  0  0  0  0
 22 20  1  0  0  0  0
 22 23  1  0  0  0  0
 24 22  1  0  0  0  0
M  END
>  <MODEL>
8

>  <REMARK>
  Name = ZINC41097578
                            x       y       z     vdW  Elec       q    Type
                         _______ _______ _______ _____ _____    ______ ____

>  <TORSDO>
F 6

>  <minimizedAffinity>
-7.3857198759015583

$$$$
ZINC41097578
 OpenBabel10211215053D

 24 25  0  0  1  0  0  0  0  0999 V2000
   48.3340   53.9290   18.6320 O   0  0  0  0  0  0  0  0  0  0  0  0
   47.7730   53.3180   16.3620 C   0  0  0  0  0  0  0  0  0  0  0  0
   48.8300   53.2660   17.4670 C   0  0  2  0  0  0  0  0  0  0  0  0
   49.1390   51.8290   17.8010 C   0  0  0  0  0  0  0  0  0  0  0  0
   48.4160   50.8380   17.2430 N   0  0  0  0  0  0  0  0  0  0  0  0
   47.6970   51.0490   16.6270 H   0  0  0  0  0  0  0  0  0  0  0  0
   50.0370   51.5650   18.5710 O   0  0  0  0  0  0  0  0  0  0  0  0
   48.7160   49.4410   17.5660 C   0  0  0  0  0  0  0  0  0  0  0  0
   48.7040   48.5860   16.2820 C   0  0  0  0  0  0  0  0  0  0  0  0
   48.0830   47.2400   16.7290 C   0  0  0  0  0  0  0  0  0  0  0  0
   46.9880   47.6840   17.7310 C   0  0  0  0  0  0  0  0  0  0  0  0
   47.6260   48.8670   18.4880 C   0  0  0  0  0  0  0  0  0  0  0  0
   48.8920   55.1150   18.9450 C   0  0  0  0  0  0  0  0  0  0  0  0
   48.6920   56.0850   18.2420 O   0  0  0  0  0  0  0  0  0  0  0  0
   49.7450   55.2350   20.1430 C   0  0  0  0  0  0  0  0  0  0  0  0
   49.9650   56.4860   20.7250 C   0  0  0  0  0  0  0  0  0  0  0  0
   50.7630   56.5960   21.8450 C   0  0  0  0  0  0  0  0  0  0  0  0
   51.3480   55.4680   22.3970 C   0  0  0  0  0  0  0  0  0  0  0  0
   52.1290   55.5830   23.4940 F   0  0  0  0  0  0  0  0  0  0  0  0
   51.1350   54.2170   21.8240 C   0  0  0  0  0  0  0  0  0  0  0  0
   50.3310   54.0980   20.7030 C   0  0  0  0  0  0  0  0  0  0  0  0
   51.7280   53.0810   22.3840 N   0  0  0  0  0  0  0  0  0  0  0  0
   52.6570   53.1080   22.6660 H   0  0  0  0  0  0  0  0  0  0  0  0
   51.2130   52.2670   22.4900 H   0  0  0  0  0  0  0  0  0  0  0  0
  1 13  1  0  0  0  0
  3  2  1  1  0  0  0
  3  4  1  0  0  0  0
  3  1  1  0  0  0  0
  4  7  2  0  0  0  0
  5  8  1  0  0  0  0
  5  4  1  0  0  0  0
  6  5  1  0  0  0  0
  8 12  1  0  0  0  0
  9 10  1  0  0  0  0
  9  8  1  0  0  0  0
 10 11  1  0  0  0  0
 11 12  1  0  0  0  0
 13 15  1  0  0  0  0
 14 13  2  0  0  0  0
 15 21  2  0  0  0  0
 15 16  1  0  0  0  0
 16 17  2  0  0  0  0
 17 18  1  0  0  0  0
 18 19  1  0  0  0  0
 20 22  1  0  0  0  0
 20 18  2  0  0  0  0
 21 20  1  0  0  0  0
 22 24  1  0  0  0  0
 22 23  1  0  0  0  0
M  END
>  <MODEL>
9

>  <REMARK>
  Name = ZINC41097578
                            x       y       z     vdW  Elec       q    Type
                         _______ _______ _______ _____ _____    ______ ____

>  <TORSDO>
F 6

>  <minimizedAffinity>
-7.365772932287868

$$$$
ZINC67038653
 OpenBabel10211215063D

 22 22  0  0  1  0  0  0  0  0999 V2000
   51.3720   51.5440   18.8040 N   0  0  0  0  0  0  0  0  0  0  0  0
   50.4330   51.6110   19.0360 H   0  0  0  0  0  0  0  0  0  0  0  0
   51.7360   51.0160   17.6190 C   0  0  0  0  0  0  0  0  0  0  0  0
   50.7970   50.5810   16.7560 N   0  0  0  0  0  0  0  0  0  0  0  0
   51.0590   50.2010   15.9030 H   0  0  0  0  0  0  0  0  0  0  0  0
   52.9150   50.9310   17.3280 O   0  0  0  0  0  0  0  0  0  0  0  0
   52.0170   54.3630   18.9700 C   0  0  0  0  0  0  0  0  0  0  0  0
   52.0560   53.4390   20.1900 C   0  0  1  0  0  0  0  0  0  0  0  0
   50.6900   53.4470   20.8780 C   0  0  0  0  0  0  0  0  0  0  0  0
   50.7290   52.5230   22.0980 C   0  0  0  0  0  0  0  0  0  0  0  0
   51.0660   51.1000   21.6500 C   0  0  0  0  0  0  0  0  0  0  0  0
   52.4320   51.0920   20.9610 C   0  0  0  0  0  0  0  0  0  0  0  0
   52.3940   52.0150   19.7410 C   0  0  1  0  0  0  0  0  0  0  0  0
   49.4400   50.6790   17.0920 N   0  0  0  0  0  0  0  0  0  0  0  0
   49.0370   51.5500   17.2350 H   0  0  0  0  0  0  0  0  0  0  0  0
   48.6930   49.5630   17.2140 C   0  0  0  0  0  0  0  0  0  0  0  0
   49.1980   48.4750   17.0340 O   0  0  0  0  0  0  0  0  0  0  0  0
   47.2350   49.6680   17.5750 C   0  0  0  0  0  0  0  0  0  0  0  0
   46.9040   48.6500   18.6680 C   0  0  0  0  0  0  0  0  0  0  0  0
   45.7870   47.7250   18.1830 C   0  0  0  0  0  0  0  0  0  0  0  0
   44.8440   48.5030   17.2630 C   0  0  0  0  0  0  0  0  0  0  0  0
   45.0030   47.1980   19.3870 C   0  0  0  0  0  0  0  0  0  0  0  0
  1  2  1  0  0  0  0
  3  1  1  0  0  0  0
  4 14  1  0  0  0  0
  4  3  1  0  0  0  0
  5  4  1  0  0  0  0
  6  3  2  0  0  0  0
  8  7  1  6  0  0  0
  8  9  1  0  0  0  0
  9 10  1  0  0  0  0
 11 10  1  0  0  0  0
 12 11  1  0  0  0  0
 13  1  1  1  0  0  0
 13  8  1  0  0  0  0
 13 12  1  0  0  0  0
 14 16  1  0  0  0  0
 14 15  1  0  0  0  0
 16 18  1  0  0  0  0
 17 16  2  0  0  0  0
 18 19  1  0  0  0  0
 20 19  1  0  0  0  0
 20 22  1  0  0  0  0
 21 20  1  0  0  0  0
M  END
>  <MODEL>
1

>  <REMARK>
  Name = ZINC67038653
                            x       y       z     vdW  Elec       q    Type
                         _______ _______ _______ _____ _____    ______ ____

>  <TORSDO>
F 5

>  <minimizedAffinity>
-7.4111473944754991

$$$$
ZINC67038653
 OpenBabel10211215063D

 22 22  0  0  1  0  0  0  0  0999 V2000
   49.3690   49.3110   16.5430 N   0  0  0  0  0  0  0  0  0  0  0  0
   49.4270   49.2500   17.5090 H   0  0  0  0  0  0  0  0  0  0  0  0
   50.3330   49.9500   15.8500 C   0  0  0  0  0  0  0  0  0  0  0  0
   51.3750   50.5040   16.4980 N   0  0  0  0  0  0  0  0  0  0  0  0
   52.0690   50.9640   16.0000 H   0  0  0  0  0  0  0  0  0  0  0  0
   50.2610   50.0260   14.6380 O   0  0  0  0  0  0  0  0  0  0  0  0
   48.8390   46.4730   16.7760 C   0  0  0  0  0  0  0  0  0  0  0  0
   47.7210   47.5070   16.6320 C   0  0  1  0  0  0  0  0  0  0  0  0
   47.2710   47.9680   18.0190 C   0  0  0  0  0  0  0  0  0  0  0  0
   46.1520   49.0020   17.8750 C   0  0  0  0  0  0  0  0  0  0  0  0
   46.6670   50.2030   17.0800 C   0  0  0  0  0  0  0  0  0  0  0  0
   47.1170   49.7420   15.6930 C   0  0  0  0  0  0  0  0  0  0  0  0
   48.2360   48.7080   15.8360 C   0  0  1  0  0  0  0  0  0  0  0  0
   51.4580   50.4160   17.8940 N   0  0  0  0  0  0  0  0  0  0  0  0
   50.9210   49.7650   18.3730 H   0  0  0  0  0  0  0  0  0  0  0  0
   52.2850   51.2360   18.5740 C   0  0  0  0  0  0  0  0  0  0  0  0
   52.9570   52.0500   17.9760 O   0  0  0  0  0  0  0  0  0  0  0  0
   52.3740   51.1420   20.0750 C   0  0  0  0  0  0  0  0  0  0  0  0
   51.1100   51.7370   20.7000 C   0  0  0  0  0  0  0  0  0  0  0  0
   51.2370   53.2600   20.7560 C   0  0  0  0  0  0  0  0  0  0  0  0
   51.5430   53.6930   22.1910 C   0  0  0  0  0  0  0  0  0  0  0  0
   49.9240   53.8980   20.3000 C   0  0  0  0  0  0  0  0  0  0  0  0
  1  2  1  0  0  0  0
  3  4  1  0  0  0  0
  3  1  1  0  0  0  0
  4 14  1  0  0  0  0
  5  4  1  0  0  0  0
  6  3  2  0  0  0  0
  8  7  1  1  0  0  0
  8  9  1  0  0  0  0
 10  9  1  0  0  0  0
 11 10  1  0  0  0  0
 12 13  1  0  0  0  0
 12 11  1  0  0  0  0
 13  1  1  1  0  0  0
 13  8  1  0  0  0  0
 14 15  1  0  0  0  0
 14 16  1  0  0  0  0
 16 18  1  0  0  0  0
 17 16  2  0  0  0  0
 18 19  1  0  0  0  0
 19 20  1  0  0  0  0
 20 21  1  0  0  0  0
 22 20  1  0  0  0  0
M  END
>  <MODEL>
2

>  <REMARK>
  Name = ZINC67038653
                            x       y       z     vdW  Elec       q    Type
                         _______ _______ _______ _____ _____    ______ ____

>  <TORSDO>
F 5

>  <minimizedAffinity>
-7.3371287408520161

$$$$
ZINC67038653
 OpenBabel10211215063D

 22 22  0  0  1  0  0  0  0  0999 V2000
   51.1460   50.8090   20.0790 N   0  0  0  0  0  0  0  0  0  0  0  0
   50.2270   51.1030   19.9810 H   0  0  0  0  0  0  0  0  0  0  0  0
   51.4670   49.5190   19.8520 C   0  0  0  0  0  0  0  0  0  0  0  0
   50.5120   48.6400   19.4910 N   0  0  0  0  0  0  0  0  0  0  0  0
   50.7420   47.7120   19.3270 H   0  0  0  0  0  0  0  0  0  0  0  0
   52.6190   49.1490   19.9740 O   0  0  0  0  0  0  0  0  0  0  0  0
   52.6230   52.2760   18.0650 C   0  0  0  0  0  0  0  0  0  0  0  0
   52.2730   52.8790   19.4280 C   0  0  1  0  0  0  0  0  0  0  0  0
   50.9260   53.5990   19.3350 C   0  0  0  0  0  0  0  0  0  0  0  0
   50.5760   54.2010   20.6970 C   0  0  0  0  0  0  0  0  0  0  0  0
   50.4870   53.0870   21.7410 C   0  0  0  0  0  0  0  0  0  0  0  0
   51.8340   52.3670   21.8340 C   0  0  0  0  0  0  0  0  0  0  0  0
   52.1850   51.7630   20.4720 C   0  0  1  0  0  0  0  0  0  0  0  0
   49.1850   49.0670   19.3500 N   0  0  0  0  0  0  0  0  0  0  0  0
   48.8120   49.7070   19.9750 H   0  0  0  0  0  0  0  0  0  0  0  0
   48.4250   48.5870   18.3440 C   0  0  0  0  0  0  0  0  0  0  0  0
   48.8920   47.7860   17.5620 O   0  0  0  0  0  0  0  0  0  0  0  0
   46.9980   49.0450   18.1930 C   0  0  0  0  0  0  0  0  0  0  0  0
   46.8870   49.9790   16.9860 C   0  0  0  0  0  0  0  0  0  0  0  0
   47.9130   51.1060   17.1160 C   0  0  0  0  0  0  0  0  0  0  0  0
   47.1870   52.4510   17.1870 C   0  0  0  0  0  0  0  0  0  0  0  0
   48.8430   51.0920   15.9020 C   0  0  0  0  0  0  0  0  0  0  0  0
  2  1  1  0  0  0  0
  3  6  2  0  0  0  0
  3  1  1  0  0  0  0
  4  3  1  0  0  0  0
  5  4  1  0  0  0  0
  8  7  1  6  0  0  0
  8 13  1  0  0  0  0
  9  8  1  0  0  0  0
  9 10  1  0  0  0  0
 10 11  1  0  0  0  0
 11 12  1  0  0  0  0
 13  1  1  6  0  0  0
 13 12  1  0  0  0  0
 14  4  1  0  0  0  0
 14 15  1  0  0  0  0
 16 14  1  0  0  0  0
 17 16  2  0  0  0  0
 18 16  1  0  0  0  0
 19 20  1  0  0  0  0
 19 18  1  0  0  0  0
 20 21  1  0  0  0  0
 22 20  1  0  0  0  0
M  END
>  <MODEL>
3

>  <REMARK>
  Name = ZINC67038653
                            x       y       z     vdW  Elec       q    Type
                         _______ _______ _______ _____ _____    ______ ____

>  <TORSDO>
F 5

>  <minimizedAffinity>
-7.2339087122349941

$$$$
ZINC67038653
 OpenBabel10211215063D

 22 22  0  0  1  0  0  0  0  0999 V2000
   50.0080   51.3860   17.6620 N   0  0  0  0  0  0  0  0  0  0  0  0
   49.1900   51.9060   17.7040 H   0  0  0  0  0  0  0  0  0  0  0  0
   51.1600   51.9050   18.1290 C   0  0  0  0  0  0  0  0  0  0  0  0
   51.1770   53.1460   18.6550 N   0  0  0  0  0  0  0  0  0  0  0  0
   52.0060   53.5200   18.9910 H   0  0  0  0  0  0  0  0  0  0  0  0
   52.1860   51.2540   18.0770 O   0  0  0  0  0  0  0  0  0  0  0  0
   49.4640   49.0910   19.3430 C   0  0  0  0  0  0  0  0  0  0  0  0
   49.0160   49.1620   17.8810 C   0  0  1  0  0  0  0  0  0  0  0  0
   47.6120   49.7650   17.8070 C   0  0  0  0  0  0  0  0  0  0  0  0
   47.1640   49.8360   16.3460 C   0  0  0  0  0  0  0  0  0  0  0  0
   48.1380   50.7120   15.5550 C   0  0  0  0  0  0  0  0  0  0  0  0
   49.5420   50.1080   15.6290 C   0  0  0  0  0  0  0  0  0  0  0  0
   49.9910   50.0370   17.0900 C   0  0  1  0  0  0  0  0  0  0  0  0
   49.9960   53.8960   18.7150 N   0  0  0  0  0  0  0  0  0  0  0  0
   49.4370   53.9870   17.9280 H   0  0  0  0  0  0  0  0  0  0  0  0
   49.6340   54.4920   19.8690 C   0  0  0  0  0  0  0  0  0  0  0  0
   50.3320   54.3780   20.8550 O   0  0  0  0  0  0  0  0  0  0  0  0
   48.3630   55.2990   19.9350 C   0  0  0  0  0  0  0  0  0  0  0  0
   48.6800   56.7730   19.6720 C   0  0  0  0  0  0  0  0  0  0  0  0
   47.9460   57.6430   20.6930 C   0  0  0  0  0  0  0  0  0  0  0  0
   47.3510   58.8640   19.9890 C   0  0  0  0  0  0  0  0  0  0  0  0
   48.9290   58.1040   21.7710 C   0  0  0  0  0  0  0  0  0  0  0  0
  1  2  1  0  0  0  0
  1  3  1  0  0  0  0
  3  4  1  0  0  0  0
  4 14  1  0  0  0  0
  4  5  1  0  0  0  0
  6  3  2  0  0  0  0
  8  7  1  1  0  0  0
  9  8  1  0  0  0  0
 10  9  1  0  0  0  0
 11 12  1  0  0  0  0
 11 10  1  0  0  0  0
 12 13  1  0  0  0  0
 13  1  1  6  0  0  0
 13  8  1  0  0  0  0
 14 16  1  0  0  0  0
 15 14  1  0  0  0  0
 16 18  1  0  0  0  0
 16 17  2  0  0  0  0
 19 18  1  0  0  0  0
 19 20  1  0  0  0  0
 20 22  1  0  0  0  0
 21 20  1  0  0  0  0
M  END
>  <MODEL>
4

>  <REMARK>
  Name = ZINC67038653
                            x       y       z     vdW  Elec       q    Type
                         _______ _______ _______ _____ _____    ______ ____

>  <TORSDO>
F 5

>  <minimizedAffinity>
-7.0527983375333569

$$$$
ZINC67038653
 OpenBabel10211215063D

 22 22  0  0  1  0  0  0  0  0999 V2000
   50.7190   54.6990   21.2640 N   0  0  0  0  0  0  0  0  0  0  0  0
   50.2630   54.1010   20.6510 H   0  0  0  0  0  0  0  0  0  0  0  0
   51.4200   54.1960   22.2990 C   0  0  0  0  0  0  0  0  0  0  0  0
   51.4880   52.8630   22.4830 N   0  0  0  0  0  0  0  0  0  0  0  0
   51.9930   52.5000   23.2280 H   0  0  0  0  0  0  0  0  0  0  0  0
   51.9920   54.9450   23.0680 O   0  0  0  0  0  0  0  0  0  0  0  0
   52.6590   56.0470   19.5890 C   0  0  0  0  0  0  0  0  0  0  0  0
   51.2010   56.5020   19.6840 C   0  0  1  0  0  0  0  0  0  0  0  0
   50.3770   55.7960   18.6050 C   0  0  0  0  0  0  0  0  0  0  0  0
   48.9190   56.2500   18.7000 C   0  0  0  0  0  0  0  0  0  0  0  0
   48.3620   55.8970   20.0810 C   0  0  0  0  0  0  0  0  0  0  0  0
   49.1870   56.6020   21.1590 C   0  0  0  0  0  0  0  0  0  0  0  0
   50.6450   56.1480   21.0650 C   0  0  1  0  0  0  0  0  0  0  0  0
   50.8300   51.9990   21.5980 N   0  0  0  0  0  0  0  0  0  0  0  0
   49.8710   52.0740   21.4690 H   0  0  0  0  0  0  0  0  0  0  0  0
   51.5290   51.0650   20.9220 C   0  0  0  0  0  0  0  0  0  0  0  0
   52.7280   50.9720   21.0820 O   0  0  0  0  0  0  0  0  0  0  0  0
   50.8210   50.1360   19.9700 C   0  0  0  0  0  0  0  0  0  0  0  0
   50.0890   50.9570   18.9070 C   0  0  0  0  0  0  0  0  0  0  0  0
   49.2180   50.0300   18.0570 C   0  0  0  0  0  0  0  0  0  0  0  0
   48.0910   50.8390   17.4110 C   0  0  0  0  0  0  0  0  0  0  0  0
   48.6180   48.9380   18.9450 C   0  0  0  0  0  0  0  0  0  0  0  0
  1  3  1  0  0  0  0
  2  1  1  0  0  0  0
  3  4  1  0  0  0  0
  3  6  2  0  0  0  0
  4  5  1  0  0  0  0
  8  7  1  1  0  0  0
  8 13  1  0  0  0  0
  9 10  1  0  0  0  0
  9  8  1  0  0  0  0
 10 11  1  0  0  0  0
 11 12  1  0  0  0  0
 13 12  1  0  0  0  0
 13  1  1  6  0  0  0
 14  4  1  0  0  0  0
 15 14  1  0  0  0  0
 16 17  2  0  0  0  0
 16 14  1  0  0  0  0
 18 16  1  0  0  0  0
 19 18  1  0  0  0  0
 20 19  1  0  0  0  0
 20 22  1  0  0  0  0
 21 20  1  0  0  0  0
M  END
>  <MODEL>
5

>  <REMARK>
  Name = ZINC67038653
                            x       y       z     vdW  Elec       q    Type
                         _______ _______ _______ _____ _____    ______ ____

>  <TORSDO>
F 5

>  <minimizedAffinity>
-7.0062835642501353

$$$$
ZINC67038653
 OpenBabel10211215063D

 22 22  0  0  1  0  0  0  0  0999 V2000
   51.3730   52.6640   18.7780 N   0  0  0  0  0  0  0  0  0  0  0  0
   50.6560   52.2180   19.2540 H   0  0  0  0  0  0  0  0  0  0  0  0
   52.3440   51.9380   18.1880 C   0  0  0  0  0  0  0  0  0  0  0  0
   52.3180   50.5930   18.2620 N   0  0  0  0  0  0  0  0  0  0  0  0
   53.0170   50.0700   17.8380 H   0  0  0  0  0  0  0  0  0  0  0  0
   53.2440   52.4970   17.5900 O   0  0  0  0  0  0  0  0  0  0  0  0
   49.0460   54.1270   17.8640 C   0  0  0  0  0  0  0  0  0  0  0  0
   49.9940   54.6770   18.9320 C   0  0  1  0  0  0  0  0  0  0  0  0
   49.5030   54.2520   20.3170 C   0  0  0  0  0  0  0  0  0  0  0  0
   50.4510   54.8020   21.3850 C   0  0  0  0  0  0  0  0  0  0  0  0
   51.8590   54.2510   21.1510 C   0  0  0  0  0  0  0  0  0  0  0  0
   52.3490   54.6770   19.7660 C   0  0  0  0  0  0  0  0  0  0  0  0
   51.4020   54.1270   18.6980 C   0  0  1  0  0  0  0  0  0  0  0  0
   51.2820   49.9490   18.9500 N   0  0  0  0  0  0  0  0  0  0  0  0
   51.4290   49.6180   19.8500 H   0  0  0  0  0  0  0  0  0  0  0  0
   50.0790   49.7890   18.3630 C   0  0  0  0  0  0  0  0  0  0  0  0
   49.8950   50.2030   17.2370 O   0  0  0  0  0  0  0  0  0  0  0  0
   48.9640   49.0970   19.1030 C   0  0  0  0  0  0  0  0  0  0  0  0
   48.0370   48.4070   18.1010 C   0  0  0  0  0  0  0  0  0  0  0  0
   46.5910   48.8240   18.3720 C   0  0  0  0  0  0  0  0  0  0  0  0
   45.7930   47.6120   18.8560 C   0  0  0  0  0  0  0  0  0  0  0  0
   45.9660   49.3650   17.0840 C   0  0  0  0  0  0  0  0  0  0  0  0
  1  2  1  0  0  0  0
  3  4  1  0  0  0  0
  3  1  1  0  0  0  0
  4 14  1  0  0  0  0
  5  4  1  0  0  0  0
  6  3  2  0  0  0  0
  8  7  1  1  0  0  0
  8  9  1  0  0  0  0
  9 10  1  0  0  0  0
 11 10  1  0  0  0  0
 12 11  1  0  0  0  0
 13  1  1  1  0  0  0
 13  8  1  0  0  0  0
 13 12  1  0  0  0  0
 14 15  1  0  0  0  0
 16 14  1  0  0  0  0
 16 18  1  0  0  0  0
 17 16  2  0  0  0  0
 19 20  1  0  0  0  0
 19 18  1  0  0  0  0
 20 21  1  0  0  0  0
 22 20  1  0  0  0  0
M  END
>  <MODEL>
6

>  <REMARK>
  Name = ZINC67038653
                            x       y       z     vdW  Elec       q    Type
                         _______ _______ _______ _____ _____    ______ ____

>  <TORSDO>
F 5

>  <minimizedAffinity>
-6.9759733064830751

$$$$
ZINC67038653
 OpenBabel10211215063D

 22 22  0  0  1  0  0  0  0  0999 V2000
   48.7660   49.1140   16.1370 N   0  0  0  0  0  0  0  0  0  0  0  0
   49.0330   49.1330   17.0690 H   0  0  0  0  0  0  0  0  0  0  0  0
   49.4440   49.8440   15.2290 C   0  0  0  0  0  0  0  0  0  0  0  0
   50.4900   50.5990   15.6150 N   0  0  0  0  0  0  0  0  0  0  0  0
   50.9780   51.1250   14.9620 H   0  0  0  0  0  0  0  0  0  0  0  0
   49.1100   49.8200   14.0590 O   0  0  0  0  0  0  0  0  0  0  0  0
   48.7030   46.2810   16.7360 C   0  0  0  0  0  0  0  0  0  0  0  0
   47.4380   47.1410   16.7050 C   0  0  1  0  0  0  0  0  0  0  0  0
   47.1710   47.7050   18.1020 C   0  0  0  0  0  0  0  0  0  0  0  0
   45.9060   48.5650   18.0710 C   0  0  0  0  0  0  0  0  0  0  0  0
   46.0960   49.7180   17.0830 C   0  0  0  0  0  0  0  0  0  0  0  0
   46.3630   49.1530   15.6860 C   0  0  0  0  0  0  0  0  0  0  0  0
   47.6280   48.2930   15.7160 C   0  0  1  0  0  0  0  0  0  0  0  0
   50.8750   50.6260   16.9620 N   0  0  0  0  0  0  0  0  0  0  0  0
   51.6080   50.0700   17.2690 H   0  0  0  0  0  0  0  0  0  0  0  0
   50.2260   51.4260   17.8330 C   0  0  0  0  0  0  0  0  0  0  0  0
   49.3100   52.1210   17.4490 O   0  0  0  0  0  0  0  0  0  0  0  0
   50.6400   51.4540   19.2810 C   0  0  0  0  0  0  0  0  0  0  0  0
   51.2030   52.8350   19.6240 C   0  0  0  0  0  0  0  0  0  0  0  0
   50.4420   53.4140   20.8180 C   0  0  0  0  0  0  0  0  0  0  0  0
   49.7680   54.7240   20.4070 C   0  0  0  0  0  0  0  0  0  0  0  0
   51.4190   53.6810   21.9650 C   0  0  0  0  0  0  0  0  0  0  0  0
  1  2  1  0  0  0  0
  3  4  1  0  0  0  0
  3  1  1  0  0  0  0
  4 14  1  0  0  0  0
  5  4  1  0  0  0  0
  6  3  2  0  0  0  0
  8  7  1  1  0  0  0
  8  9  1  0  0  0  0
 10  9  1  0  0  0  0
 11 10  1  0  0  0  0
 12 13  1  0  0  0  0
 12 11  1  0  0  0  0
 13  1  1  1  0  0  0
 13  8  1  0  0  0  0
 14 15  1  0  0  0  0
 14 16  1  0  0  0  0
 16 18  1  0  0  0  0
 17 16  2  0  0  0  0
 18 19  1  0  0  0  0
 19 20  1  0  0  0  0
 20 22  1  0  0  0  0
 21 20  1  0  0  0  0
M  END
>  <MODEL>
7

>  <REMARK>
  Name = ZINC67038653
                            x       y       z     vdW  Elec       q    Type
                         _______ _______ _______ _____ _____    ______ ____

>  <TORSDO>
F 5

>  <minimizedAffinity>
-6.6980521397481541

$$$$
ZINC67038653
 OpenBabel10211215063D

 22 22  0  0  1  0  0  0  0  0999 V2000
   46.3310   47.9980   17.1560 N   0  0  0  0  0  0  0  0  0  0  0  0
   46.1450   48.1430   16.2160 H   0  0  0  0  0  0  0  0  0  0  0  0
   45.3960   47.4380   17.9490 C   0  0  0  0  0  0  0  0  0  0  0  0
   44.2030   47.0790   17.4350 N   0  0  0  0  0  0  0  0  0  0  0  0
   43.5300   46.6760   18.0050 H   0  0  0  0  0  0  0  0  0  0  0  0
   45.6290   47.2570   19.1290 O   0  0  0  0  0  0  0  0  0  0  0  0
   48.6830   46.3780   16.6730 C   0  0  0  0  0  0  0  0  0  0  0  0
   48.7480   47.9020   16.7940 C   0  0  1  0  0  0  0  0  0  0  0  0
   48.5790   48.5310   15.4100 C   0  0  0  0  0  0  0  0  0  0  0  0
   48.6440   50.0550   15.5320 C   0  0  0  0  0  0  0  0  0  0  0  0
   47.5240   50.5420   16.4530 C   0  0  0  0  0  0  0  0  0  0  0  0
   47.6920   49.9130   17.8370 C   0  0  0  0  0  0  0  0  0  0  0  0
   47.6270   48.3890   17.7160 C   0  0  1  0  0  0  0  0  0  0  0  0
   43.9360   47.2880   16.0760 N   0  0  0  0  0  0  0  0  0  0  0  0
   43.7660   48.1840   15.7460 H   0  0  0  0  0  0  0  0  0  0  0  0
   43.9150   46.2430   15.2240 C   0  0  0  0  0  0  0  0  0  0  0  0
   44.1270   45.1220   15.6360 O   0  0  0  0  0  0  0  0  0  0  0  0
   43.6270   46.4670   13.7630 C   0  0  0  0  0  0  0  0  0  0  0  0
   44.0490   47.8840   13.3700 C   0  0  0  0  0  0  0  0  0  0  0  0
   44.8400   47.8370   12.0620 C   0  0  0  0  0  0  0  0  0  0  0  0
   45.3380   46.4110   11.8180 C   0  0  0  0  0  0  0  0  0  0  0  0
   46.0370   48.7850   12.1560 C   0  0  0  0  0  0  0  0  0  0  0  0
  1  3  1  0  0  0  0
  2  1  1  0  0  0  0
  3  6  2  0  0  0  0
  4  3  1  0  0  0  0
  4  5  1  0  0  0  0
  8  7  1  6  0  0  0
  8 13  1  0  0  0  0
  9 10  1  0  0  0  0
  9  8  1  0  0  0  0
 10 11  1  0  0  0  0
 11 12  1  0  0  0  0
 13  1  1  6  0  0  0
 13 12  1  0  0  0  0
 14  4  1  0  0  0  0
 15 14  1  0  0  0  0
 16 17  2  0  0  0  0
 16 14  1  0  0  0  0
 18 16  1  0  0  0  0
 19 18  1  0  0  0  0
 20 22  1  0  0  0  0
 20 19  1  0  0  0  0
 21 20  1  0  0  0  0
M  END
>  <MODEL>
8

>  <REMARK>
  Name = ZINC67038653
                            x       y       z     vdW  Elec       q    Type
                         _______ _______ _______ _____ _____    ______ ____

>  <TORSDO>
F 5

>  <minimizedAffinity>
-6.231641093215158

$$$$
ZINC67038653
 OpenBabel10211215063D

 22 22  0  0  1  0  0  0  0  0999 V2000
   45.3720   60.6650   16.8200 N   0  0  0  0  0  0  0  0  0  0  0  0
   45.7910   60.2320   17.5800 H   0  0  0  0  0  0  0  0  0  0  0  0
   45.3360   60.0410   15.6260 C   0  0  0  0  0  0  0  0  0  0  0  0
   45.8840   58.8180   15.4870 N   0  0  0  0  0  0  0  0  0  0  0  0
   45.8590   58.3690   14.6280 H   0  0  0  0  0  0  0  0  0  0  0  0
   44.8100   60.5830   14.6730 O   0  0  0  0  0  0  0  0  0  0  0  0
   42.9910   61.0310   18.4280 C   0  0  0  0  0  0  0  0  0  0  0  0
   44.0870   62.0940   18.3320 C   0  0  1  0  0  0  0  0  0  0  0  0
   45.1150   61.8670   19.4430 C   0  0  0  0  0  0  0  0  0  0  0  0
   46.2120   62.9300   19.3470 C   0  0  0  0  0  0  0  0  0  0  0  0
   46.9010   62.8310   17.9850 C   0  0  0  0  0  0  0  0  0  0  0  0
   45.8740   63.0580   16.8750 C   0  0  0  0  0  0  0  0  0  0  0  0
   44.7770   61.9950   16.9700 C   0  0  1  0  0  0  0  0  0  0  0  0
   46.4900   58.1940   16.5860 N   0  0  0  0  0  0  0  0  0  0  0  0
   46.0830   58.2550   17.4640 H   0  0  0  0  0  0  0  0  0  0  0  0
   47.6390   57.5070   16.4220 C   0  0  0  0  0  0  0  0  0  0  0  0
   48.1470   57.4300   15.3230 O   0  0  0  0  0  0  0  0  0  0  0  0
   48.2900   56.8360   17.6030 C   0  0  0  0  0  0  0  0  0  0  0  0
   48.0520   57.6720   18.8610 C   0  0  0  0  0  0  0  0  0  0  0  0
   47.9760   56.7510   20.0800 C   0  0  0  0  0  0  0  0  0  0  0  0
   48.7700   57.3660   21.2340 C   0  0  0  0  0  0  0  0  0  0  0  0
   48.5690   55.3860   19.7250 C   0  0  0  0  0  0  0  0  0  0  0  0
  1  2  1  0  0  0  0
  3  1  1  0  0  0  0
  4  3  1  0  0  0  0
  4 14  1  0  0  0  0
  5  4  1  0  0  0  0
  6  3  2  0  0  0  0
  8  7  1  6  0  0  0
  8  9  1  0  0  0  0
 10  9  1  0  0  0  0
 11 10  1  0  0  0  0
 12 13  1  0  0  0  0
 12 11  1  0  0  0  0
 13  1  1  1  0  0  0
 13  8  1  0  0  0  0
 14 15  1  0  0  0  0
 16 14  1  0  0  0  0
 16 18  1  0  0  0  0
 17 16  2  0  0  0  0
 18 19  1  0  0  0  0
 19 20  1  0  0  0  0
 20 21  1  0  0  0  0
 22 20  1  0  0  0  0
M  END
>  <MODEL>
9

>  <REMARK>
  Name = ZINC67038653
                            x       y       z     vdW  Elec       q    Type
                         _______ _______ _______ _____ _____    ______ ____

>  <TORSDO>
F 5

>  <minimizedAffinity>
-6.2150728510608726

$$$$
ZINC54352566
 OpenBabel10211215073D

 25 26  0  0  0  0  0  0  0  0999 V2000
   51.7100   54.5540   20.3010 N   0  0  0  0  0  0  0  0  0  0  0  0
   52.4050   54.7610   19.6570 H   0  0  0  0  0  0  0  0  0  0  0  0
   51.6040   53.3070   20.8000 C   0  0  0  0  0  0  0  0  0  0  0  0
   52.5300   52.3780   20.4920 N   0  0  0  0  0  0  0  0  0  0  0  0
   53.2730   52.6060   19.9120 H   0  0  0  0  0  0  0  0  0  0  0  0
   50.6730   53.0200   21.5270 O   0  0  0  0  0  0  0  0  0  0  0  0
   49.0540   57.5260   21.5280 C   0  0  0  0  0  0  0  0  0  0  0  0
   50.3110   57.4450   22.1000 C   0  0  0  0  0  0  0  0  0  0  0  0
   51.1940   56.4610   21.6950 C   0  0  0  0  0  0  0  0  0  0  0  0
   52.4220   56.3840   22.2540 F   0  0  0  0  0  0  0  0  0  0  0  0
   50.8170   55.5510   20.7130 C   0  0  0  0  0  0  0  0  0  0  0  0
   49.5550   55.6350   20.1410 C   0  0  0  0  0  0  0  0  0  0  0  0
   48.6760   56.6220   20.5510 C   0  0  0  0  0  0  0  0  0  0  0  0
   47.4470   56.7040   19.9950 F   0  0  0  0  0  0  0  0  0  0  0  0
   52.4150   51.0210   21.0340 C   0  0  0  0  0  0  0  0  0  0  0  0
   52.5080   50.0060   19.8930 C   0  0  0  0  0  0  0  0  0  0  0  0
   51.8460   50.5710   18.6630 C   0  0  0  0  0  0  0  0  0  0  0  0
   50.5010   50.5930   18.5720 N   0  0  0  0  0  0  0  0  0  0  0  0
   49.9610   50.2460   19.2980 H   0  0  0  0  0  0  0  0  0  0  0  0
   52.5230   51.0060   17.7560 O   0  0  0  0  0  0  0  0  0  0  0  0
   49.8570   51.1440   17.3760 C   0  0  0  0  0  0  0  0  0  0  0  0
   49.3610   52.5780   17.6560 C   0  0  0  0  0  0  0  0  0  0  0  0
   48.0230   52.6740   16.8830 C   0  0  0  0  0  0  0  0  0  0  0  0
   47.4070   51.2690   17.0910 C   0  0  0  0  0  0  0  0  0  0  0  0
   48.6140   50.3120   17.0170 C   0  0  0  0  0  0  0  0  0  0  0  0
  1 11  1  0  0  0  0
  1  3  1  0  0  0  0
  2  1  1  0  0  0  0
  3  6  2  0  0  0  0
  4  3  1  0  0  0  0
  4 15  1  0  0  0  0
  5  4  1  0  0  0  0
  7  8  2  0  0  0  0
  9  8  1  0  0  0  0
  9 10  1  0  0  0  0
 11  9  2  0  0  0  0
 12 13  2  0  0  0  0
 12 11  1  0  0  0  0
 13  7  1  0  0  0  0
 14 13  1  0  0  0  0
 16 15  1  0  0  0  0
 17 16  1  0  0  0  0
 18 17  1  0  0  0  0
 18 19  1  0  0  0  0
 20 17  2  0  0  0  0
 21 22  1  0  0  0  0
 21 18  1  0  0  0  0
 23 24  1  0  0  0  0
 23 22  1  0  0  0  0
 25 24  1  0  0  0  0
 25 21  1  0  0  0  0
M  END
>  <MODEL>
1

>  <REMARK>
  Name = ZINC54352566
                            x       y       z     vdW  Elec       q    Type
                         _______ _______ _______ _____ _____    ______ ____

>  <TORSDO>
F 5

>  <minimizedAffinity>
-8.2068577367249791

$$$$
ZINC54352566
 OpenBabel10211215073D

 25 26  0  0  0  0  0  0  0  0999 V2000
   49.1750   48.1370   18.1460 N   0  0  0  0  0  0  0  0  0  0  0  0
   49.5620   47.2570   18.2680 H   0  0  0  0  0  0  0  0  0  0  0  0
   49.7480   49.2110   18.7250 C   0  0  0  0  0  0  0  0  0  0  0  0
   50.9200   49.0790   19.3780 N   0  0  0  0  0  0  0  0  0  0  0  0
   51.3500   48.2120   19.4310 H   0  0  0  0  0  0  0  0  0  0  0  0
   49.2080   50.2980   18.6590 O   0  0  0  0  0  0  0  0  0  0  0  0
   45.7400   48.6010   15.8280 C   0  0  0  0  0  0  0  0  0  0  0  0
   46.9610   48.3800   15.2150 C   0  0  0  0  0  0  0  0  0  0  0  0
   48.1020   48.2260   15.9810 C   0  0  0  0  0  0  0  0  0  0  0  0
   49.2940   48.0090   15.3830 F   0  0  0  0  0  0  0  0  0  0  0  0
   48.0210   48.2940   17.3690 C   0  0  0  0  0  0  0  0  0  0  0  0
   46.7950   48.5150   17.9790 C   0  0  0  0  0  0  0  0  0  0  0  0
   45.6570   48.6690   17.2070 C   0  0  0  0  0  0  0  0  0  0  0  0
   44.4630   48.8860   17.8010 F   0  0  0  0  0  0  0  0  0  0  0  0
   51.5430   50.2460   20.0090 C   0  0  0  0  0  0  0  0  0  0  0  0
   52.5010   50.9110   19.0180 C   0  0  0  0  0  0  0  0  0  0  0  0
   52.1170   52.3570   18.8430 C   0  0  0  0  0  0  0  0  0  0  0  0
   50.9600   52.8150   19.3610 N   0  0  0  0  0  0  0  0  0  0  0  0
   50.3760   52.2140   19.8470 H   0  0  0  0  0  0  0  0  0  0  0  0
   52.8510   53.1090   18.2350 O   0  0  0  0  0  0  0  0  0  0  0  0
   50.5880   54.2230   19.1910 C   0  0  0  0  0  0  0  0  0  0  0  0
   50.6250   54.9470   20.5520 C   0  0  0  0  0  0  0  0  0  0  0  0
   49.4300   55.9310   20.4900 C   0  0  0  0  0  0  0  0  0  0  0  0
   48.3500   55.1100   19.7420 C   0  0  0  0  0  0  0  0  0  0  0  0
   49.1420   54.3260   18.6760 C   0  0  0  0  0  0  0  0  0  0  0  0
  1  2  1  0  0  0  0
  1  3  1  0  0  0  0
  3  4  1  0  0  0  0
  4  5  1  0  0  0  0
  4 15  1  0  0  0  0
  6  3  2  0  0  0  0
  7 13  1  0  0  0  0
  8  7  2  0  0  0  0
  8  9  1  0  0  0  0
  9 11  2  0  0  0  0
 10  9  1  0  0  0  0
 11 12  1  0  0  0  0
 11  1  1  0  0  0  0
 13 14  1  0  0  0  0
 13 12  2  0  0  0  0
 16 15  1  0  0  0  0
 17 16  1  0  0  0  0
 17 18  1  0  0  0  0
 18 19  1  0  0  0  0
 20 17  2  0  0  0  0
 21 18  1  0  0  0  0
 21 22  1  0  0  0  0
 23 22  1  0  0  0  0
 24 23  1  0  0  0  0
 25 21  1  0  0  0  0
 25 24  1  0  0  0  0
M  END
>  <MODEL>
2

>  <REMARK>
  Name = ZINC54352566
                            x       y       z     vdW  Elec       q    Type
                         _______ _______ _______ _____ _____    ______ ____

>  <TORSDO>
F 5

>  <minimizedAffinity>
-8.0458276002450368

$$$$
ZINC54352566
 OpenBabel10211215073D

 25 26  0  0  0  0  0  0  0  0999 V2000
   49.5570   49.1090   17.8920 N   0  0  0  0  0  0  0  0  0  0  0  0
   49.9010   48.3800   18.4300 H   0  0  0  0  0  0  0  0  0  0  0  0
   50.2360   50.2710   17.8190 C   0  0  0  0  0  0  0  0  0  0  0  0
   51.4460   50.3820   18.4010 N   0  0  0  0  0  0  0  0  0  0  0  0
   51.8290   49.6250   18.8720 H   0  0  0  0  0  0  0  0  0  0  0  0
   49.7560   51.2200   17.2300 O   0  0  0  0  0  0  0  0  0  0  0  0
   45.9800   48.6480   15.7970 C   0  0  0  0  0  0  0  0  0  0  0  0
   47.1820   48.3290   15.1890 C   0  0  0  0  0  0  0  0  0  0  0  0
   48.3700   48.4820   15.8810 C   0  0  0  0  0  0  0  0  0  0  0  0
   49.5430   48.1700   15.2870 F   0  0  0  0  0  0  0  0  0  0  0  0
   48.3560   48.9550   17.1890 C   0  0  0  0  0  0  0  0  0  0  0  0
   47.1490   49.2730   17.7960 C   0  0  0  0  0  0  0  0  0  0  0  0
   45.9640   49.1190   17.0980 C   0  0  0  0  0  0  0  0  0  0  0  0
   44.7880   49.4290   17.6880 F   0  0  0  0  0  0  0  0  0  0  0  0
   52.1850   51.6450   18.3240 C   0  0  0  0  0  0  0  0  0  0  0  0
   52.7500   51.9920   19.7030 C   0  0  0  0  0  0  0  0  0  0  0  0
   51.7090   52.7340   20.5000 C   0  0  0  0  0  0  0  0  0  0  0  0
   51.8410   54.0590   20.7110 N   0  0  0  0  0  0  0  0  0  0  0  0
   52.6040   54.5330   20.3500 H   0  0  0  0  0  0  0  0  0  0  0  0
   50.7520   52.1390   20.9510 O   0  0  0  0  0  0  0  0  0  0  0  0
   50.8270   54.7810   21.4860 C   0  0  0  0  0  0  0  0  0  0  0  0
   49.8630   55.5200   20.5350 C   0  0  0  0  0  0  0  0  0  0  0  0
   49.5550   56.8500   21.2670 C   0  0  0  0  0  0  0  0  0  0  0  0
   50.9190   57.2130   21.9040 C   0  0  0  0  0  0  0  0  0  0  0  0
   51.4980   55.8570   22.3560 C   0  0  0  0  0  0  0  0  0  0  0  0
  1  2  1  0  0  0  0
  3  1  1  0  0  0  0
  3  4  1  0  0  0  0
  4  5  1  0  0  0  0
  6  3  2  0  0  0  0
  7 13  1  0  0  0  0
  8  7  2  0  0  0  0
  8  9  1  0  0  0  0
  9 11  2  0  0  0  0
 10  9  1  0  0  0  0
 11 12  1  0  0  0  0
 11  1  1  0  0  0  0
 13 14  1  0  0  0  0
 13 12  2  0  0  0  0
 15  4  1  0  0  0  0
 15 16  1  0  0  0  0
 16 17  1  0  0  0  0
 17 18  1  0  0  0  0
 17 20  2  0  0  0  0
 18 21  1  0  0  0  0
 19 18  1  0  0  0  0
 21 25  1  0  0  0  0
 22 23  1  0  0  0  0
 22 21  1  0  0  0  0
 23 24  1  0  0  0  0
 24 25  1  0  0  0  0
M  END
>  <MODEL>
3

>  <REMARK>
  Name = ZINC54352566
                            x       y       z     vdW  Elec       q    Type
                         _______ _______ _______ _____ _____    ______ ____

>  <TORSDO>
F 5

>  <minimizedAffinity>
-8.0309627848876115

$$$$
ZINC54352566
 OpenBabel10211215073D

 25 26  0  0  0  0  0  0  0  0999 V2000
   49.8310   51.7730   16.8970 N   0  0  0  0  0  0  0  0  0  0  0  0
   49.9330   52.5630   16.3430 H   0  0  0  0  0  0  0  0  0  0  0  0
   50.6380   51.5870   17.9600 C   0  0  0  0  0  0  0  0  0  0  0  0
   51.5100   52.5490   18.3200 N   0  0  0  0  0  0  0  0  0  0  0  0
   51.5570   53.3760   17.8140 H   0  0  0  0  0  0  0  0  0  0  0  0
   50.5800   50.5520   18.5940 O   0  0  0  0  0  0  0  0  0  0  0  0
   46.8930   48.9540   15.9950 C   0  0  0  0  0  0  0  0  0  0  0  0
   48.1250   48.8930   15.3660 C   0  0  0  0  0  0  0  0  0  0  0  0
   49.1010   49.8270   15.6630 C   0  0  0  0  0  0  0  0  0  0  0  0
   50.3030   49.7660   15.0490 F   0  0  0  0  0  0  0  0  0  0  0  0
   48.8440   50.8280   16.5940 C   0  0  0  0  0  0  0  0  0  0  0  0
   47.6080   50.8850   17.2230 C   0  0  0  0  0  0  0  0  0  0  0  0
   46.6350   49.9480   16.9210 C   0  0  0  0  0  0  0  0  0  0  0  0
   45.4320   50.0050   17.5330 F   0  0  0  0  0  0  0  0  0  0  0  0
   52.3900   52.3480   19.4750 C   0  0  0  0  0  0  0  0  0  0  0  0
   51.7790   53.0210   20.7050 C   0  0  0  0  0  0  0  0  0  0  0  0
   51.4260   54.4480   20.3740 C   0  0  0  0  0  0  0  0  0  0  0  0
   50.1740   54.8990   20.5870 N   0  0  0  0  0  0  0  0  0  0  0  0
   49.5010   54.3060   20.9540 H   0  0  0  0  0  0  0  0  0  0  0  0
   52.2700   55.1890   19.9150 O   0  0  0  0  0  0  0  0  0  0  0  0
   49.8310   56.2880   20.2650 C   0  0  0  0  0  0  0  0  0  0  0  0
   49.7290   57.1200   21.5600 C   0  0  0  0  0  0  0  0  0  0  0  0
   48.5550   58.0940   21.2930 C   0  0  0  0  0  0  0  0  0  0  0  0
   47.5550   57.2130   20.5040 C   0  0  0  0  0  0  0  0  0  0  0  0
   48.4490   56.3470   19.5940 C   0  0  0  0  0  0  0  0  0  0  0  0
  1  3  1  0  0  0  0
  2  1  1  0  0  0  0
  3  4  1  0  0  0  0
  3  6  2  0  0  0  0
  4 15  1  0  0  0  0
  5  4  1  0  0  0  0
  7 13  2  0  0  0  0
  8  9  2  0  0  0  0
  8  7  1  0  0  0  0
  9 11  1  0  0  0  0
 10  9  1  0  0  0  0
 11  1  1  0  0  0  0
 11 12  2  0  0  0  0
 13 12  1  0  0  0  0
 13 14  1  0  0  0  0
 15 16  1  0  0  0  0
 17 18  1  0  0  0  0
 17 16  1  0  0  0  0
 18 19  1  0  0  0  0
 20 17  2  0  0  0  0
 21 18  1  0  0  0  0
 21 22  1  0  0  0  0
 23 22  1  0  0  0  0
 24 23  1  0  0  0  0
 25 21  1  0  0  0  0
 25 24  1  0  0  0  0
M  END
>  <MODEL>
4

>  <REMARK>
  Name = ZINC54352566
                            x       y       z     vdW  Elec       q    Type
                         _______ _______ _______ _____ _____    ______ ____

>  <TORSDO>
F 5

>  <minimizedAffinity>
-8.002117208913992

$$$$
ZINC54352566
 OpenBabel10211215073D

 25 26  0  0  0  0  0  0  0  0999 V2000
   51.3940   53.7600   22.1170 N   0  0  0  0  0  0  0  0  0  0  0  0
   51.1870   53.4720   23.0200 H   0  0  0  0  0  0  0  0  0  0  0  0
   51.8360   52.8670   21.2100 C   0  0  0  0  0  0  0  0  0  0  0  0
   51.8820   51.5570   21.5220 N   0  0  0  0  0  0  0  0  0  0  0  0
   51.5970   51.2570   22.4000 H   0  0  0  0  0  0  0  0  0  0  0  0
   52.1930   53.2420   20.1110 O   0  0  0  0  0  0  0  0  0  0  0  0
   50.9120   57.7600   21.0420 C   0  0  0  0  0  0  0  0  0  0  0  0
   49.9870   56.8180   20.6270 C   0  0  0  0  0  0  0  0  0  0  0  0
   50.1440   55.4910   20.9820 C   0  0  0  0  0  0  0  0  0  0  0  0
   49.2400   54.5720   20.5770 F   0  0  0  0  0  0  0  0  0  0  0  0
   51.2330   55.1030   21.7560 C   0  0  0  0  0  0  0  0  0  0  0  0
   52.1580   56.0510   22.1710 C   0  0  0  0  0  0  0  0  0  0  0  0
   51.9950   57.3770   21.8120 C   0  0  0  0  0  0  0  0  0  0  0  0
   52.8970   58.3000   22.2140 F   0  0  0  0  0  0  0  0  0  0  0  0
   52.3630   50.5840   20.5370 C   0  0  0  0  0  0  0  0  0  0  0  0
   51.4060   49.3920   20.4860 C   0  0  0  0  0  0  0  0  0  0  0  0
   50.3350   49.6520   19.4570 C   0  0  0  0  0  0  0  0  0  0  0  0
   49.6880   48.6190   18.8820 N   0  0  0  0  0  0  0  0  0  0  0  0
   49.9120   47.7090   19.1310 H   0  0  0  0  0  0  0  0  0  0  0  0
   50.0560   50.7920   19.1480 O   0  0  0  0  0  0  0  0  0  0  0  0
   48.6460   48.8720   17.8830 C   0  0  0  0  0  0  0  0  0  0  0  0
   47.2530   48.7930   18.5410 C   0  0  0  0  0  0  0  0  0  0  0  0
   46.3620   48.1310   17.4620 C   0  0  0  0  0  0  0  0  0  0  0  0
   47.3100   47.0800   16.8330 C   0  0  0  0  0  0  0  0  0  0  0  0
   48.6830   47.7830   16.7980 C   0  0  0  0  0  0  0  0  0  0  0  0
  1  2  1  0  0  0  0
  3  4  1  0  0  0  0
  3  1  1  0  0  0  0
  4  5  1  0  0  0  0
  6  3  2  0  0  0  0
  7 13  2  0  0  0  0
  8  9  2  0  0  0  0
  8  7  1  0  0  0  0
  9 11  1  0  0  0  0
 10  9  1  0  0  0  0
 11  1  1  0  0  0  0
 11 12  2  0  0  0  0
 13 12  1  0  0  0  0
 13 14  1  0  0  0  0
 15  4  1  0  0  0  0
 16 15  1  0  0  0  0
 17 16  1  0  0  0  0
 18 19  1  0  0  0  0
 18 17  1  0  0  0  0
 20 17  2  0  0  0  0
 21 22  1  0  0  0  0
 21 18  1  0  0  0  0
 23 22  1  0  0  0  0
 24 23  1  0  0  0  0
 25 24  1  0  0  0  0
 25 21  1  0  0  0  0
M  END
>  <MODEL>
5

>  <REMARK>
  Name = ZINC54352566
                            x       y       z     vdW  Elec       q    Type
                         _______ _______ _______ _____ _____    ______ ____

>  <TORSDO>
F 5

>  <minimizedAffinity>
-7.9275026195928984

$$$$
ZINC54352566
 OpenBabel10211215073D

 25 26  0  0  0  0  0  0  0  0999 V2000
   51.4550   54.3800   20.1000 N   0  0  0  0  0  0  0  0  0  0  0  0
   51.9960   54.5150   19.3070 H   0  0  0  0  0  0  0  0  0  0  0  0
   51.4680   53.1890   20.7300 C   0  0  0  0  0  0  0  0  0  0  0  0
   52.3150   52.2220   20.3250 N   0  0  0  0  0  0  0  0  0  0  0  0
   52.9160   52.3840   19.5810 H   0  0  0  0  0  0  0  0  0  0  0  0
   50.7150   52.9850   21.6620 O   0  0  0  0  0  0  0  0  0  0  0  0
   49.0950   57.4900   21.5680 C   0  0  0  0  0  0  0  0  0  0  0  0
   50.3880   57.3250   22.0350 C   0  0  0  0  0  0  0  0  0  0  0  0
   51.1730   56.2950   21.5510 C   0  0  0  0  0  0  0  0  0  0  0  0
   52.4340   56.1340   22.0070 F   0  0  0  0  0  0  0  0  0  0  0  0
   50.6620   55.4240   20.5930 C   0  0  0  0  0  0  0  0  0  0  0  0
   49.3660   55.5930   20.1260 C   0  0  0  0  0  0  0  0  0  0  0  0
   48.5860   56.6260   20.6150 C   0  0  0  0  0  0  0  0  0  0  0  0
   47.3230   56.7900   20.1620 F   0  0  0  0  0  0  0  0  0  0  0  0
   52.3290   50.9260   21.0080 C   0  0  0  0  0  0  0  0  0  0  0  0
   52.2630   49.8020   19.9720 C   0  0  0  0  0  0  0  0  0  0  0  0
   50.8360   49.3410   19.8210 C   0  0  0  0  0  0  0  0  0  0  0  0
   50.2210   49.4330   18.6260 N   0  0  0  0  0  0  0  0  0  0  0  0
   50.6960   49.7960   17.8630 H   0  0  0  0  0  0  0  0  0  0  0  0
   50.2420   48.8860   20.7770 O   0  0  0  0  0  0  0  0  0  0  0  0
   48.8330   48.9840   18.4790 C   0  0  0  0  0  0  0  0  0  0  0  0
   48.7680   47.7750   17.5230 C   0  0  0  0  0  0  0  0  0  0  0  0
   47.4550   47.9900   16.7290 C   0  0  0  0  0  0  0  0  0  0  0  0
   47.4310   49.5250   16.5200 C   0  0  0  0  0  0  0  0  0  0  0  0
   47.9840   50.0960   17.8410 C   0  0  0  0  0  0  0  0  0  0  0  0
  1 11  1  0  0  0  0
  1  3  1  0  0  0  0
  2  1  1  0  0  0  0
  3  6  2  0  0  0  0
  4  3  1  0  0  0  0
  4 15  1  0  0  0  0
  5  4  1  0  0  0  0
  7  8  1  0  0  0  0
  9 10  1  0  0  0  0
  9  8  2  0  0  0  0
 11  9  1  0  0  0  0
 12 11  2  0  0  0  0
 12 13  1  0  0  0  0
 13  7  2  0  0  0  0
 14 13  1  0  0  0  0
 16 15  1  0  0  0  0
 17 16  1  0  0  0  0
 17 20  2  0  0  0  0
 18 17  1  0  0  0  0
 19 18  1  0  0  0  0
 21 18  1  0  0  0  0
 22 21  1  0  0  0  0
 23 22  1  0  0  0  0
 24 23  1  0  0  0  0
 24 25  1  0  0  0  0
 25 21  1  0  0  0  0
M  END
>  <MODEL>
6

>  <REMARK>
  Name = ZINC54352566
                            x       y       z     vdW  Elec       q    Type
                         _______ _______ _______ _____ _____    ______ ____

>  <TORSDO>
F 5

>  <minimizedAffinity>
-7.8715552710413785

$$$$
ZINC54352566
 OpenBabel10211215073D

 25 26  0  0  0  0  0  0  0  0999 V2000
   50.9210   54.4040   20.9580 N   0  0  0  0  0  0  0  0  0  0  0  0
   50.9970   53.7960   21.7100 H   0  0  0  0  0  0  0  0  0  0  0  0
   51.4750   54.0820   19.7730 C   0  0  0  0  0  0  0  0  0  0  0  0
   52.0350   52.8680   19.5990 N   0  0  0  0  0  0  0  0  0  0  0  0
   52.0400   52.2270   20.3260 H   0  0  0  0  0  0  0  0  0  0  0  0
   51.4700   54.8850   18.8610 O   0  0  0  0  0  0  0  0  0  0  0  0
   48.8810   58.0150   21.3920 C   0  0  0  0  0  0  0  0  0  0  0  0
   50.1000   57.8320   22.0200 C   0  0  0  0  0  0  0  0  0  0  0  0
   50.7790   56.6350   21.8780 C   0  0  0  0  0  0  0  0  0  0  0  0
   51.9700   56.4580   22.4910 F   0  0  0  0  0  0  0  0  0  0  0  0
   50.2350   55.6160   21.1040 C   0  0  0  0  0  0  0  0  0  0  0  0
   49.0120   55.8030   20.4750 C   0  0  0  0  0  0  0  0  0  0  0  0
   48.3380   57.0020   20.6210 C   0  0  0  0  0  0  0  0  0  0  0  0
   47.1460   57.1850   20.0100 F   0  0  0  0  0  0  0  0  0  0  0  0
   52.6390   52.5170   18.3100 C   0  0  0  0  0  0  0  0  0  0  0  0
   52.3140   51.0610   17.9740 C   0  0  0  0  0  0  0  0  0  0  0  0
   50.8380   50.9250   17.7030 C   0  0  0  0  0  0  0  0  0  0  0  0
   50.2900   49.7020   17.5580 N   0  0  0  0  0  0  0  0  0  0  0  0
   50.8450   48.9110   17.6280 H   0  0  0  0  0  0  0  0  0  0  0  0
   50.1440   51.9160   17.6160 O   0  0  0  0  0  0  0  0  0  0  0  0
   48.8540   49.5700   17.2950 C   0  0  0  0  0  0  0  0  0  0  0  0
   48.1130   49.1820   18.5910 C   0  0  0  0  0  0  0  0  0  0  0  0
   47.0080   48.2050   18.1180 C   0  0  0  0  0  0  0  0  0  0  0  0
   47.7220   47.3940   17.0080 C   0  0  0  0  0  0  0  0  0  0  0  0
   48.6050   48.4340   16.2890 C   0  0  0  0  0  0  0  0  0  0  0  0
  1 11  1  0  0  0  0
  1  2  1  0  0  0  0
  3  1  1  0  0  0  0
  4  3  1  0  0  0  0
  4  5  1  0  0  0  0
  6  3  2  0  0  0  0
  7  8  2  0  0  0  0
  9  8  1  0  0  0  0
  9 10  1  0  0  0  0
 11  9  2  0  0  0  0
 12 13  2  0  0  0  0
 12 11  1  0  0  0  0
 13  7  1  0  0  0  0
 14 13  1  0  0  0  0
 15  4  1  0  0  0  0
 16 15  1  0  0  0  0
 17 16  1  0  0  0  0
 18 19  1  0  0  0  0
 18 17  1  0  0  0  0
 20 17  2  0  0  0  0
 21 18  1  0  0  0  0
 21 22  1  0  0  0  0
 23 22  1  0  0  0  0
 24 23  1  0  0  0  0
 25 24  1  0  0  0  0
 25 21  1  0  0  0  0
M  END
>  <MODEL>
7

>  <REMARK>
  Name = ZINC54352566
                            x       y       z     vdW  Elec       q    Type
                         _______ _______ _______ _____ _____    ______ ____

>  <TORSDO>
F 5

>  <minimizedAffinity>
-7.6921169162113534

$$$$
ZINC54352566
 OpenBabel10211215073D

 25 26  0  0  0  0  0  0  0  0999 V2000
   49.1260   48.8130   17.6940 N   0  0  0  0  0  0  0  0  0  0  0  0
   49.5820   48.0460   18.0760 H   0  0  0  0  0  0  0  0  0  0  0  0
   49.6800   50.0380   17.7830 C   0  0  0  0  0  0  0  0  0  0  0  0
   50.9150   50.1830   18.3020 N   0  0  0  0  0  0  0  0  0  0  0  0
   51.4060   49.4060   18.6100 H   0  0  0  0  0  0  0  0  0  0  0  0
   49.0640   51.0130   17.3970 O   0  0  0  0  0  0  0  0  0  0  0  0
   45.4570   48.3190   15.7760 C   0  0  0  0  0  0  0  0  0  0  0  0
   45.5040   48.4430   17.1530 C   0  0  0  0  0  0  0  0  0  0  0  0
   46.7190   48.6070   17.7930 C   0  0  0  0  0  0  0  0  0  0  0  0
   46.7640   48.7280   19.1370 F   0  0  0  0  0  0  0  0  0  0  0  0
   47.8950   48.6460   17.0500 C   0  0  0  0  0  0  0  0  0  0  0  0
   47.8440   48.5220   15.6680 C   0  0  0  0  0  0  0  0  0  0  0  0
   46.6240   48.3580   15.0350 C   0  0  0  0  0  0  0  0  0  0  0  0
   46.5740   48.2360   13.6900 F   0  0  0  0  0  0  0  0  0  0  0  0
   51.5170   51.5160   18.4000 C   0  0  0  0  0  0  0  0  0  0  0  0
   51.1700   52.1340   19.7550 C   0  0  0  0  0  0  0  0  0  0  0  0
   51.1580   53.6360   19.6340 C   0  0  0  0  0  0  0  0  0  0  0  0
   50.3710   54.3710   20.4450 N   0  0  0  0  0  0  0  0  0  0  0  0
   49.8140   53.9330   21.1060 H   0  0  0  0  0  0  0  0  0  0  0  0
   51.8560   54.1830   18.8060 O   0  0  0  0  0  0  0  0  0  0  0  0
   50.3590   55.8320   20.3270 C   0  0  0  0  0  0  0  0  0  0  0  0
   50.6350   56.4750   21.7020 C   0  0  0  0  0  0  0  0  0  0  0  0
   49.7260   57.7290   21.7230 C   0  0  0  0  0  0  0  0  0  0  0  0
   48.4440   57.2330   21.0100 C   0  0  0  0  0  0  0  0  0  0  0  0
   48.9670   56.3140   19.8870 C   0  0  0  0  0  0  0  0  0  0  0  0
  1  3  1  0  0  0  0
  1  2  1  0  0  0  0
  3  4  1  0  0  0  0
  4 15  1  0  0  0  0
  4  5  1  0  0  0  0
  6  3  2  0  0  0  0
  7  8  2  0  0  0  0
  8  9  1  0  0  0  0
  9 10  1  0  0  0  0
 11  1  1  0  0  0  0
 11  9  2  0  0  0  0
 12 11  1  0  0  0  0
 13 12  2  0  0  0  0
 13  7  1  0  0  0  0
 14 13  1  0  0  0  0
 15 16  1  0  0  0  0
 17 16  1  0  0  0  0
 17 18  1  0  0  0  0
 18 19  1  0  0  0  0
 20 17  2  0  0  0  0
 21 18  1  0  0  0  0
 21 22  1  0  0  0  0
 22 23  1  0  0  0  0
 24 23  1  0  0  0  0
 25 21  1  0  0  0  0
 25 24  1  0  0  0  0
M  END
>  <MODEL>
8

>  <REMARK>
  Name = ZINC54352566
                            x       y       z     vdW  Elec       q    Type
                         _______ _______ _______ _____ _____    ______ ____

>  <TORSDO>
F 5

>  <minimizedAffinity>
-7.6903733070968228

$$$$
ZINC54352566
 OpenBabel10211215073D

 25 26  0  0  0  0  0  0  0  0999 V2000
   50.8460   55.3120   19.5880 N   0  0  0  0  0  0  0  0  0  0  0  0
   51.5540   55.6390   19.0110 H   0  0  0  0  0  0  0  0  0  0  0  0
   50.8420   54.0230   19.9840 C   0  0  0  0  0  0  0  0  0  0  0  0
   51.8760   53.2190   19.6710 N   0  0  0  0  0  0  0  0  0  0  0  0
   52.6250   53.5670   19.1610 H   0  0  0  0  0  0  0  0  0  0  0  0
   49.9040   53.5870   20.6210 O   0  0  0  0  0  0  0  0  0  0  0  0
   47.8210   57.8890   20.8510 C   0  0  0  0  0  0  0  0  0  0  0  0
   47.6450   57.1250   19.7100 C   0  0  0  0  0  0  0  0  0  0  0  0
   48.6470   56.2700   19.2890 C   0  0  0  0  0  0  0  0  0  0  0  0
   48.4740   55.5240   18.1750 F   0  0  0  0  0  0  0  0  0  0  0  0
   49.8310   56.1780   20.0120 C   0  0  0  0  0  0  0  0  0  0  0  0
   50.0030   56.9440   21.1560 C   0  0  0  0  0  0  0  0  0  0  0  0
   48.9970   57.7990   21.5720 C   0  0  0  0  0  0  0  0  0  0  0  0
   49.1650   58.5460   22.6850 F   0  0  0  0  0  0  0  0  0  0  0  0
   51.8710   51.8170   20.0990 C   0  0  0  0  0  0  0  0  0  0  0  0
   51.9840   50.9090   18.8730 C   0  0  0  0  0  0  0  0  0  0  0  0
   50.6240   50.7440   18.2440 C   0  0  0  0  0  0  0  0  0  0  0  0
   50.0750   49.5180   18.1380 N   0  0  0  0  0  0  0  0  0  0  0  0
   50.5540   48.7420   18.4670 H   0  0  0  0  0  0  0  0  0  0  0  0
   50.0250   51.7160   17.8340 O   0  0  0  0  0  0  0  0  0  0  0  0
   48.7530   49.3580   17.5270 C   0  0  0  0  0  0  0  0  0  0  0  0
   47.7360   48.8820   18.5840 C   0  0  0  0  0  0  0  0  0  0  0  0
   46.8190   47.8990   17.8140 C   0  0  0  0  0  0  0  0  0  0  0  0
   47.8140   47.1680   16.8790 C   0  0  0  0  0  0  0  0  0  0  0  0
   48.8020   48.2680   16.4430 C   0  0  0  0  0  0  0  0  0  0  0  0
  1  3  1  0  0  0  0
  1 11  1  0  0  0  0
  2  1  1  0  0  0  0
  3  6  2  0  0  0  0
  4  3  1  0  0  0  0
  4 15  1  0  0  0  0
  5  4  1  0  0  0  0
  7 13  2  0  0  0  0
  8  7  1  0  0  0  0
  9  8  2  0  0  0  0
  9 11  1  0  0  0  0
 10  9  1  0  0  0  0
 11 12  2  0  0  0  0
 12 13  1  0  0  0  0
 13 14  1  0  0  0  0
 16 15  1  0  0  0  0
 17 16  1  0  0  0  0
 18 17  1  0  0  0  0
 18 19  1  0  0  0  0
 20 17  2  0  0  0  0
 21 18  1  0  0  0  0
 21 22  1  0  0  0  0
 23 22  1  0  0  0  0
 24 23  1  0  0  0  0
 25 24  1  0  0  0  0
 25 21  1  0  0  0  0
M  END
>  <MODEL>
9

>  <REMARK>
  Name = ZINC54352566
                            x       y       z     vdW  Elec       q    Type
                         _______ _______ _______ _____ _____    ______ ____

>  <TORSDO>
F 5

>  <minimizedAffinity>
-7.5696286754802564

$$$$
ZINC35205655
 OpenBabel10211215073D

 20 20  0  0  1  0  0  0  0  0999 V2000
   50.6820   54.5890   20.8970 C   0  0  0  0  0  0  0  0  0  0  0  0
   49.6000   54.4130   20.0430 C   0  0  0  0  0  0  0  0  0  0  0  0
   48.6850   55.4330   19.8700 C   0  0  0  0  0  0  0  0  0  0  0  0
   48.8440   56.6280   20.5470 C   0  0  0  0  0  0  0  0  0  0  0  0
   49.9180   56.8070   21.3980 C   0  0  0  0  0  0  0  0  0  0  0  0
   50.8350   55.7900   21.5790 C   0  0  0  0  0  0  0  0  0  0  0  0
   47.8430   57.7380   20.3560 C   0  0  0  0  0  0  0  0  0  0  0  0
   48.1840   58.8200   21.1750 F   0  0  0  0  0  0  0  0  0  0  0  0
   46.5660   57.2800   20.6990 F   0  0  0  0  0  0  0  0  0  0  0  0
   47.8480   58.1470   19.0180 F   0  0  0  0  0  0  0  0  0  0  0  0
   51.9820   55.9800   22.4950 N   0  0  0  0  0  0  0  0  0  0  0  0
   52.0100   55.4020   23.5560 O   0  0  0  0  0  0  0  0  0  0  0  0
   52.8910   56.7140   22.1820 O   0  0  0  0  0  0  0  0  0  0  0  0
   51.6090   53.5600   21.0750 N   0  0  0  0  0  0  0  0  0  0  0  0
   52.3200   53.6550   21.7270 H   0  0  0  0  0  0  0  0  0  0  0  0
   52.5450   52.3740   19.1520 C   0  0  0  0  0  0  0  0  0  0  0  0
   51.5070   52.3370   20.2750 C   0  0  1  0  0  0  0  0  0  0  0  0
   51.7650   51.1210   21.1670 C   0  0  0  0  0  0  0  0  0  0  0  0
   53.1220   50.6980   21.0160 O   0  0  0  0  0  0  0  0  0  0  0  0
   53.7560   51.4240   20.9510 H   0  0  0  0  0  0  0  0  0  0  0  0
  1 14  1  0  0  0  0
  1  6  2  0  0  0  0
  2  1  1  0  0  0  0
  3  2  2  0  0  0  0
  3  4  1  0  0  0  0
  4  5  2  0  0  0  0
  5  6  1  0  0  0  0
  6 11  1  0  0  0  0
  7  4  1  0  0  0  0
  7  9  1  0  0  0  0
  7  8  1  0  0  0  0
 10  7  1  0  0  0  0
 11 12  2  0  0  0  0
 13 11  2  0  0  0  0
 14 15  1  0  0  0  0
 17 16  1  1  0  0  0
 17 14  1  0  0  0  0
 17 18  1  0  0  0  0
 19 18  1  0  0  0  0
 20 19  1  0  0  0  0
M  END
>  <MODEL>
1

>  <REMARK>
  Name = ZINC35205655
                            x       y       z     vdW  Elec       q    Type
                         _______ _______ _______ _____ _____    ______ ____

>  <TORSDO>
F 6

>  <minimizedAffinity>
-7.3532700771515627

$$$$
ZINC35205655
 OpenBabel10211215073D

 20 20  0  0  1  0  0  0  0  0999 V2000
   50.3550   53.5400   18.8330 C   0  0  0  0  0  0  0  0  0  0  0  0
   49.4300   54.4200   19.3790 C   0  0  0  0  0  0  0  0  0  0  0  0
   49.7760   55.1930   20.4700 C   0  0  0  0  0  0  0  0  0  0  0  0
   51.0410   55.0910   21.0190 C   0  0  0  0  0  0  0  0  0  0  0  0
   51.9640   54.2160   20.4770 C   0  0  0  0  0  0  0  0  0  0  0  0
   51.6240   53.4360   19.3900 C   0  0  0  0  0  0  0  0  0  0  0  0
   51.4140   55.9370   22.2090 C   0  0  0  0  0  0  0  0  0  0  0  0
   52.6250   56.5910   21.9550 F   0  0  0  0  0  0  0  0  0  0  0  0
   51.5550   55.1200   23.3360 F   0  0  0  0  0  0  0  0  0  0  0  0
   50.4120   56.8840   22.4420 F   0  0  0  0  0  0  0  0  0  0  0  0
   52.6110   52.4960   18.8140 N   0  0  0  0  0  0  0  0  0  0  0  0
   53.3020   52.8390   17.8840 O   0  0  0  0  0  0  0  0  0  0  0  0
   52.7250   51.3830   19.2740 O   0  0  0  0  0  0  0  0  0  0  0  0
   50.0090   52.7560   17.7300 N   0  0  0  0  0  0  0  0  0  0  0  0
   50.3340   52.9890   16.8470 H   0  0  0  0  0  0  0  0  0  0  0  0
   47.8260   51.8010   17.1800 C   0  0  0  0  0  0  0  0  0  0  0  0
   49.1530   51.5800   17.9080 C   0  0  1  0  0  0  0  0  0  0  0  0
   49.8520   50.3480   17.3310 C   0  0  0  0  0  0  0  0  0  0  0  0
   51.1160   50.7300   16.7820 O   0  0  0  0  0  0  0  0  0  0  0  0
   51.1090   50.8470   15.8230 H   0  0  0  0  0  0  0  0  0  0  0  0
  1  2  2  0  0  0  0
  1  6  1  0  0  0  0
  2  3  1  0  0  0  0
  3  4  2  0  0  0  0
  4  7  1  0  0  0  0
  5  4  1  0  0  0  0
  6  5  2  0  0  0  0
  7 10  1  0  0  0  0
  7  9  1  0  0  0  0
  8  7  1  0  0  0  0
 11 13  2  0  0  0  0
 11  6  1  0  0  0  0
 12 11  2  0  0  0  0
 14 17  1  0  0  0  0
 14  1  1  0  0  0  0
 15 14  1  0  0  0  0
 17 16  1  6  0  0  0
 18 17  1  0  0  0  0
 19 18  1  0  0  0  0
 20 19  1  0  0  0  0
M  END
>  <MODEL>
2

>  <REMARK>
  Name = ZINC35205655
                            x       y       z     vdW  Elec       q    Type
                         _______ _______ _______ _____ _____    ______ ____

>  <TORSDO>
F 6

>  <minimizedAffinity>
-6.9360335817435237

$$$$
ZINC35205655
 OpenBabel10211215073D

 20 20  0  0  1  0  0  0  0  0999 V2000
   50.1480   53.0680   19.2640 C   0  0  0  0  0  0  0  0  0  0  0  0
   50.6800   53.7470   20.3540 C   0  0  0  0  0  0  0  0  0  0  0  0
   50.1510   54.9650   20.7320 C   0  0  0  0  0  0  0  0  0  0  0  0
   49.0930   55.5100   20.0260 C   0  0  0  0  0  0  0  0  0  0  0  0
   48.5610   54.8380   18.9420 C   0  0  0  0  0  0  0  0  0  0  0  0
   49.0890   53.6210   18.5550 C   0  0  0  0  0  0  0  0  0  0  0  0
   48.5190   56.8400   20.4420 C   0  0  0  0  0  0  0  0  0  0  0  0
   48.9080   57.1260   21.7550 F   0  0  0  0  0  0  0  0  0  0  0  0
   47.1220   56.7870   20.3720 F   0  0  0  0  0  0  0  0  0  0  0  0
   48.9910   57.8400   19.5860 F   0  0  0  0  0  0  0  0  0  0  0  0
   48.5230   52.9040   17.3910 N   0  0  0  0  0  0  0  0  0  0  0  0
   48.2420   51.7320   17.4810 O   0  0  0  0  0  0  0  0  0  0  0  0
   48.3430   53.4910   16.3480 O   0  0  0  0  0  0  0  0  0  0  0  0
   50.6810   51.8360   18.8790 N   0  0  0  0  0  0  0  0  0  0  0  0
   50.8820   51.6650   17.9460 H   0  0  0  0  0  0  0  0  0  0  0  0
   50.1170   49.5530   19.5520 C   0  0  0  0  0  0  0  0  0  0  0  0
   50.9360   50.8020   19.8850 C   0  0  1  0  0  0  0  0  0  0  0  0
   52.4250   50.4490   19.8860 C   0  0  0  0  0  0  0  0  0  0  0  0
   52.9890   50.7620   21.1610 O   0  0  0  0  0  0  0  0  0  0  0  0
   53.3260   51.6660   21.2310 H   0  0  0  0  0  0  0  0  0  0  0  0
  1  2  2  0  0  0  0
  2  3  1  0  0  0  0
  4  7  1  0  0  0  0
  4  3  2  0  0  0  0
  5  4  1  0  0  0  0
  6  5  2  0  0  0  0
  6  1  1  0  0  0  0
  7  8  1  0  0  0  0
  9  7  1  0  0  0  0
 10  7  1  0  0  0  0
 11 12  2  0  0  0  0
 11  6  1  0  0  0  0
 13 11  2  0  0  0  0
 14  1  1  0  0  0  0
 15 14  1  0  0  0  0
 16 17  1  0  0  0  0
 17 14  1  6  0  0  0
 17 18  1  0  0  0  0
 18 19  1  0  0  0  0
 19 20  1  0  0  0  0
M  END
>  <MODEL>
3

>  <REMARK>
  Name = ZINC35205655
                            x       y       z     vdW  Elec       q    Type
                         _______ _______ _______ _____ _____    ______ ____

>  <TORSDO>
F 6

>  <minimizedAffinity>
-6.7766485983317928

$$$$
ZINC35205655
 OpenBabel10211215073D

 20 20  0  0  1  0  0  0  0  0999 V2000
   49.9940   50.9190   17.9660 C   0  0  0  0  0  0  0  0  0  0  0  0
   48.9660   51.1650   17.0650 C   0  0  0  0  0  0  0  0  0  0  0  0
   47.8130   50.4050   17.1090 C   0  0  0  0  0  0  0  0  0  0  0  0
   47.6830   49.4000   18.0490 C   0  0  0  0  0  0  0  0  0  0  0  0
   48.7030   49.1510   18.9470 C   0  0  0  0  0  0  0  0  0  0  0  0
   49.8610   49.9040   18.9060 C   0  0  0  0  0  0  0  0  0  0  0  0
   46.4240   48.5730   18.0940 C   0  0  0  0  0  0  0  0  0  0  0  0
   46.2910   47.9930   19.3610 F   0  0  0  0  0  0  0  0  0  0  0  0
   46.4920   47.5650   17.1260 F   0  0  0  0  0  0  0  0  0  0  0  0
   45.3180   49.3910   17.8380 F   0  0  0  0  0  0  0  0  0  0  0  0
   50.9560   49.6330   19.8640 N   0  0  0  0  0  0  0  0  0  0  0  0
   50.7110   49.5050   21.0410 O   0  0  0  0  0  0  0  0  0  0  0  0
   52.0950   49.5410   19.4700 O   0  0  0  0  0  0  0  0  0  0  0  0
   51.1610   51.6840   17.9240 N   0  0  0  0  0  0  0  0  0  0  0  0
   51.9640   51.3230   17.5170 H   0  0  0  0  0  0  0  0  0  0  0  0
   50.1580   53.1120   19.6370 C   0  0  0  0  0  0  0  0  0  0  0  0
   51.1730   53.0330   18.4950 C   0  0  1  0  0  0  0  0  0  0  0  0
   52.5700   53.3470   19.0330 C   0  0  0  0  0  0  0  0  0  0  0  0
   52.9450   52.3570   19.9940 O   0  0  0  0  0  0  0  0  0  0  0  0
   52.4680   52.4220   20.8320 H   0  0  0  0  0  0  0  0  0  0  0  0
  1  6  2  0  0  0  0
  2  3  2  0  0  0  0
  2  1  1  0  0  0  0
  3  4  1  0  0  0  0
  4  7  1  0  0  0  0
  4  5  2  0  0  0  0
  6  5  1  0  0  0  0
  6 11  1  0  0  0  0
  7  8  1  0  0  0  0
  9  7  1  0  0  0  0
 10  7  1  0  0  0  0
 11 12  2  0  0  0  0
 13 11  2  0  0  0  0
 14  1  1  0  0  0  0
 15 14  1  0  0  0  0
 17 14  1  1  0  0  0
 17 18  1  0  0  0  0
 17 16  1  0  0  0  0
 18 19  1  0  0  0  0
 19 20  1  0  0  0  0
M  END
>  <MODEL>
4

>  <REMARK>
  Name = ZINC35205655
                            x       y       z     vdW  Elec       q    Type
                         _______ _______ _______ _____ _____    ______ ____

>  <TORSDO>
F 6

>  <minimizedAffinity>
-6.7072572680487355

$$$$
ZINC35205655
 OpenBabel10211215073D

 20 20  0  0  1  0  0  0  0  0999 V2000
   48.9360   49.1030   17.9580 C   0  0  0  0  0  0  0  0  0  0  0  0
   48.0480   48.7440   18.9650 C   0  0  0  0  0  0  0  0  0  0  0  0
   46.7610   48.3620   18.6440 C   0  0  0  0  0  0  0  0  0  0  0  0
   46.3540   48.3370   17.3220 C   0  0  0  0  0  0  0  0  0  0  0  0
   47.2350   48.6950   16.3180 C   0  0  0  0  0  0  0  0  0  0  0  0
   48.5230   49.0830   16.6320 C   0  0  0  0  0  0  0  0  0  0  0  0
   44.9480   47.9200   16.9760 C   0  0  0  0  0  0  0  0  0  0  0  0
   44.0640   48.4140   17.9410 F   0  0  0  0  0  0  0  0  0  0  0  0
   44.8700   46.5230   16.9450 F   0  0  0  0  0  0  0  0  0  0  0  0
   44.6040   48.4340   15.7210 F   0  0  0  0  0  0  0  0  0  0  0  0
   49.4630   49.4710   15.5570 N   0  0  0  0  0  0  0  0  0  0  0  0
   49.7590   50.6330   15.4050 O   0  0  0  0  0  0  0  0  0  0  0  0
   49.9350   48.6260   14.8320 O   0  0  0  0  0  0  0  0  0  0  0  0
   50.2390   49.4910   18.2800 N   0  0  0  0  0  0  0  0  0  0  0  0
   50.9890   48.9380   18.0150 H   0  0  0  0  0  0  0  0  0  0  0  0
   50.9800   50.4070   20.4220 C   0  0  0  0  0  0  0  0  0  0  0  0
   50.4710   50.7350   19.0180 C   0  0  1  0  0  0  0  0  0  0  0  0
   51.5140   51.5780   18.2810 C   0  0  0  0  0  0  0  0  0  0  0  0
   52.1030   50.8010   17.2360 O   0  0  0  0  0  0  0  0  0  0  0  0
   52.5460   49.9990   17.5430 H   0  0  0  0  0  0  0  0  0  0  0  0
  1 14  1  0  0  0  0
  1  2  2  0  0  0  0
  3  2  1  0  0  0  0
  4  3  2  0  0  0  0
  5  6  2  0  0  0  0
  5  4  1  0  0  0  0
  6  1  1  0  0  0  0
  7  4  1  0  0  0  0
  7  8  1  0  0  0  0
  9  7  1  0  0  0  0
 10  7  1  0  0  0  0
 11  6  1  0  0  0  0
 12 11  2  0  0  0  0
 13 11  2  0  0  0  0
 15 14  1  0  0  0  0
 17 14  1  6  0  0  0
 17 16  1  0  0  0  0
 18 17  1  0  0  0  0
 19 20  1  0  0  0  0
 19 18  1  0  0  0  0
M  END
>  <MODEL>
5

>  <REMARK>
  Name = ZINC35205655
                            x       y       z     vdW  Elec       q    Type
                         _______ _______ _______ _____ _____    ______ ____

>  <TORSDO>
F 6

>  <minimizedAffinity>
-6.6049632448417999

$$$$
ZINC35205655
 OpenBabel10211215073D

 20 20  0  0  1  0  0  0  0  0999 V2000
   50.6830   52.4870   20.3920 C   0  0  0  0  0  0  0  0  0  0  0  0
   51.3490   52.4310   21.6100 C   0  0  0  0  0  0  0  0  0  0  0  0
   51.6050   53.5940   22.3090 C   0  0  0  0  0  0  0  0  0  0  0  0
   51.1990   54.8130   21.7980 C   0  0  0  0  0  0  0  0  0  0  0  0
   50.5370   54.8730   20.5860 C   0  0  0  0  0  0  0  0  0  0  0  0
   50.2820   53.7140   19.8790 C   0  0  0  0  0  0  0  0  0  0  0  0
   51.4800   56.0800   22.5640 C   0  0  0  0  0  0  0  0  0  0  0  0
   50.4580   57.0060   22.3260 F   0  0  0  0  0  0  0  0  0  0  0  0
   52.7010   56.6190   22.1440 F   0  0  0  0  0  0  0  0  0  0  0  0
   51.5420   55.7950   23.9320 F   0  0  0  0  0  0  0  0  0  0  0  0
   49.5780   53.7790   18.5790 N   0  0  0  0  0  0  0  0  0  0  0  0
   48.7410   54.6300   18.3870 O   0  0  0  0  0  0  0  0  0  0  0  0
   49.8400   52.9800   17.7090 O   0  0  0  0  0  0  0  0  0  0  0  0
   50.4240   51.3130   19.6810 N   0  0  0  0  0  0  0  0  0  0  0  0
   49.8640   51.3380   18.8900 H   0  0  0  0  0  0  0  0  0  0  0  0
   50.1200   48.8860   19.6500 C   0  0  0  0  0  0  0  0  0  0  0  0
   50.9980   50.0420   20.1330 C   0  0  1  0  0  0  0  0  0  0  0  0
   52.4070   49.8870   19.5560 C   0  0  0  0  0  0  0  0  0  0  0  0
   52.9550   48.6330   19.9670 O   0  0  0  0  0  0  0  0  0  0  0  0
   53.6860   48.3230   19.4160 H   0  0  0  0  0  0  0  0  0  0  0  0
  1  2  1  0  0  0  0
  2  3  2  0  0  0  0
  4  3  1  0  0  0  0
  4  7  1  0  0  0  0
  5  4  2  0  0  0  0
  6  1  2  0  0  0  0
  6  5  1  0  0  0  0
  7 10  1  0  0  0  0
  8  7  1  0  0  0  0
  9  7  1  0  0  0  0
 11  6  1  0  0  0  0
 12 11  2  0  0  0  0
 13 11  2  0  0  0  0
 14 17  1  0  0  0  0
 14  1  1  0  0  0  0
 15 14  1  0  0  0  0
 16 17  1  0  0  0  0
 17 18  1  6  0  0  0
 18 19  1  0  0  0  0
 20 19  1  0  0  0  0
M  END
>  <MODEL>
6

>  <REMARK>
  Name = ZINC35205655
                            x       y       z     vdW  Elec       q    Type
                         _______ _______ _______ _____ _____    ______ ____

>  <TORSDO>
F 6

>  <minimizedAffinity>
-6.5843413889205369

$$$$
ZINC35205655
 OpenBabel10211215073D

 20 20  0  0  1  0  0  0  0  0999 V2000
   49.6410   54.8740   20.2640 C   0  0  0  0  0  0  0  0  0  0  0  0
   48.7230   55.0370   19.2330 C   0  0  0  0  0  0  0  0  0  0  0  0
   48.5690   54.0460   18.2850 C   0  0  0  0  0  0  0  0  0  0  0  0
   49.3280   52.8920   18.3590 C   0  0  0  0  0  0  0  0  0  0  0  0
   50.2420   52.7260   19.3830 C   0  0  0  0  0  0  0  0  0  0  0  0
   50.4050   53.7160   20.3330 C   0  0  0  0  0  0  0  0  0  0  0  0
   49.1570   51.8120   17.3220 C   0  0  0  0  0  0  0  0  0  0  0  0
   48.6540   52.3730   16.1430 F   0  0  0  0  0  0  0  0  0  0  0  0
   48.2610   50.8470   17.7960 F   0  0  0  0  0  0  0  0  0  0  0  0
   50.3940   51.2130   17.0640 F   0  0  0  0  0  0  0  0  0  0  0  0
   51.3880   53.5410   21.4250 N   0  0  0  0  0  0  0  0  0  0  0  0
   51.4210   52.5050   22.0470 O   0  0  0  0  0  0  0  0  0  0  0  0
   52.1570   54.4340   21.6950 O   0  0  0  0  0  0  0  0  0  0  0  0
   49.8000   55.8760   21.2250 N   0  0  0  0  0  0  0  0  0  0  0  0
   49.8510   55.6430   22.1640 H   0  0  0  0  0  0  0  0  0  0  0  0
   48.7850   58.0840   21.4990 C   0  0  0  0  0  0  0  0  0  0  0  0
   49.8890   57.2790   20.8110 C   0  0  1  0  0  0  0  0  0  0  0  0
   51.2550   57.8410   21.2100 C   0  0  0  0  0  0  0  0  0  0  0  0
   51.6740   57.2490   22.4420 O   0  0  0  0  0  0  0  0  0  0  0  0
   50.9450   56.9840   23.0190 H   0  0  0  0  0  0  0  0  0  0  0  0
  1  6  1  0  0  0  0
  1 14  1  0  0  0  0
  2  1  2  0  0  0  0
  3  4  2  0  0  0  0
  3  2  1  0  0  0  0
  4  5  1  0  0  0  0
  5  6  2  0  0  0  0
  6 11  1  0  0  0  0
  7  9  1  0  0  0  0
  7  4  1  0  0  0  0
  8  7  1  0  0  0  0
 10  7  1  0  0  0  0
 11 13  2  0  0  0  0
 11 12  2  0  0  0  0
 14 15  1  0  0  0  0
 17 18  1  1  0  0  0
 17 14  1  0  0  0  0
 17 16  1  0  0  0  0
 18 19  1  0  0  0  0
 19 20  1  0  0  0  0
M  END
>  <MODEL>
7

>  <REMARK>
  Name = ZINC35205655
                            x       y       z     vdW  Elec       q    Type
                         _______ _______ _______ _____ _____    ______ ____

>  <TORSDO>
F 6

>  <minimizedAffinity>
-6.5387648419781996

$$$$
ZINC35205655
 OpenBabel10211215073D

 20 20  0  0  1  0  0  0  0  0999 V2000
   50.0290   53.9060   18.6780 C   0  0  0  0  0  0  0  0  0  0  0  0
   48.7760   54.3730   18.3000 C   0  0  0  0  0  0  0  0  0  0  0  0
   48.2370   55.4800   18.9240 C   0  0  0  0  0  0  0  0  0  0  0  0
   48.9420   56.1250   19.9230 C   0  0  0  0  0  0  0  0  0  0  0  0
   50.1890   55.6630   20.3020 C   0  0  0  0  0  0  0  0  0  0  0  0
   50.7330   54.5530   19.6860 C   0  0  0  0  0  0  0  0  0  0  0  0
   48.3500   57.3330   20.6010 C   0  0  0  0  0  0  0  0  0  0  0  0
   48.8620   57.4380   21.8990 F   0  0  0  0  0  0  0  0  0  0  0  0
   46.9590   57.2010   20.6600 F   0  0  0  0  0  0  0  0  0  0  0  0
   48.6790   58.4830   19.8760 F   0  0  0  0  0  0  0  0  0  0  0  0
   52.0650   54.0560   20.0960 N   0  0  0  0  0  0  0  0  0  0  0  0
   52.9610   53.9910   19.2870 O   0  0  0  0  0  0  0  0  0  0  0  0
   52.2580   53.7140   21.2410 O   0  0  0  0  0  0  0  0  0  0  0  0
   50.5780   52.7850   18.0500 N   0  0  0  0  0  0  0  0  0  0  0  0
   50.9850   52.8700   17.1750 H   0  0  0  0  0  0  0  0  0  0  0  0
   49.3990   50.6430   18.1260 C   0  0  0  0  0  0  0  0  0  0  0  0
   50.5360   51.4800   18.7160 C   0  0  1  0  0  0  0  0  0  0  0  0
   51.8670   50.7560   18.5010 C   0  0  0  0  0  0  0  0  0  0  0  0
   52.6980   51.5330   17.6360 O   0  0  0  0  0  0  0  0  0  0  0  0
   52.6210   51.2990   16.7010 H   0  0  0  0  0  0  0  0  0  0  0  0
  1  6  1  0  0  0  0
  2  1  2  0  0  0  0
  2  3  1  0  0  0  0
  3  4  2  0  0  0  0
  4  5  1  0  0  0  0
  4  7  1  0  0  0  0
  6 11  1  0  0  0  0
  6  5  2  0  0  0  0
  7  9  1  0  0  0  0
  7  8  1  0  0  0  0
 10  7  1  0  0  0  0
 11 13  2  0  0  0  0
 12 11  2  0  0  0  0
 14  1  1  0  0  0  0
 15 14  1  0  0  0  0
 16 17  1  0  0  0  0
 17 14  1  6  0  0  0
 18 17  1  0  0  0  0
 19 18  1  0  0  0  0
 20 19  1  0  0  0  0
M  END
>  <MODEL>
8

>  <REMARK>
  Name = ZINC35205655
                            x       y       z     vdW  Elec       q    Type
                         _______ _______ _______ _____ _____    ______ ____

>  <TORSDO>
F 6

>  <minimizedAffinity>
-6.370428309687739

$$$$
ZINC35205655
 OpenBabel10211215073D

 20 20  0  0  1  0  0  0  0  0999 V2000
   49.4430   53.7330   18.4500 C   0  0  0  0  0  0  0  0  0  0  0  0
   49.9560   53.9390   19.7250 C   0  0  0  0  0  0  0  0  0  0  0  0
   49.6360   55.0890   20.4190 C   0  0  0  0  0  0  0  0  0  0  0  0
   48.8070   56.0360   19.8460 C   0  0  0  0  0  0  0  0  0  0  0  0
   48.2940   55.8350   18.5780 C   0  0  0  0  0  0  0  0  0  0  0  0
   48.6140   54.6890   17.8760 C   0  0  0  0  0  0  0  0  0  0  0  0
   48.4610   57.2900   20.6060 C   0  0  0  0  0  0  0  0  0  0  0  0
   49.0340   57.2360   21.8810 F   0  0  0  0  0  0  0  0  0  0  0  0
   47.0710   57.3940   20.7260 F   0  0  0  0  0  0  0  0  0  0  0  0
   48.9550   58.4040   19.9190 F   0  0  0  0  0  0  0  0  0  0  0  0
   48.0700   54.4760   16.5160 N   0  0  0  0  0  0  0  0  0  0  0  0
   47.6510   53.3880   16.1960 O   0  0  0  0  0  0  0  0  0  0  0  0
   48.0440   55.3910   15.7250 O   0  0  0  0  0  0  0  0  0  0  0  0
   49.7650   52.5710   17.7450 N   0  0  0  0  0  0  0  0  0  0  0  0
   49.9820   52.6200   16.8010 H   0  0  0  0  0  0  0  0  0  0  0  0
   48.7160   50.3620   17.8100 C   0  0  0  0  0  0  0  0  0  0  0  0
   49.7730   51.2770   18.4320 C   0  0  1  0  0  0  0  0  0  0  0  0
   51.1540   50.6330   18.2860 C   0  0  0  0  0  0  0  0  0  0  0  0
   51.6520   50.8650   16.9670 O   0  0  0  0  0  0  0  0  0  0  0  0
   51.8430   50.0580   16.4710 H   0  0  0  0  0  0  0  0  0  0  0  0
  1  2  1  0  0  0  0
  2  3  2  0  0  0  0
  4  3  1  0  0  0  0
  4  7  1  0  0  0  0
  5  4  2  0  0  0  0
  6  1  2  0  0  0  0
  6  5  1  0  0  0  0
  7  9  1  0  0  0  0
  7  8  1  0  0  0  0
 10  7  1  0  0  0  0
 11  6  1  0  0  0  0
 12 11  2  0  0  0  0
 13 11  2  0  0  0  0
 14  1  1  0  0  0  0
 15 14  1  0  0  0  0
 16 17  1  0  0  0  0
 17 14  1  6  0  0  0
 18 17  1  0  0  0  0
 19 18  1  0  0  0  0
 20 19  1  0  0  0  0
M  END
>  <MODEL>
9

>  <REMARK>
  Name = ZINC35205655
                            x       y       z     vdW  Elec       q    Type
                         _______ _______ _______ _____ _____    ______ ____

>  <TORSDO>
F 6

>  <minimizedAffinity>
-6.3396477149977901

$$$$
ZINC62162502
 OpenBabel10211215083D

 22 22  0  0  1  0  0  0  0  0999 V2000
   51.4090   51.7220   19.9790 C   0  0  1  0  0  0  0  0  0  0  0  0
   52.2870   51.0980   21.0670 C   0  0  0  0  0  0  0  0  0  0  0  0
   48.9130   49.9390   17.9520 N   0  0  0  0  0  0  0  0  0  0  0  0
   49.8550   50.8250   18.3300 C   0  0  0  0  0  0  0  0  0  0  0  0
   50.3850   50.7590   19.5680 N   0  0  0  0  0  0  0  0  0  0  0  0
   50.0860   50.0740   20.1870 H   0  0  0  0  0  0  0  0  0  0  0  0
   50.2300   51.6830   17.5540 O   0  0  0  0  0  0  0  0  0  0  0  0
   49.0790   49.0370   15.6850 C   0  0  0  0  0  0  0  0  0  0  0  0
   48.3390   50.0100   16.6060 C   0  0  0  0  0  0  0  0  0  0  0  0
   48.4630   48.9050   18.8860 C   0  0  0  0  0  0  0  0  0  0  0  0
   46.9830   48.6060   18.6450 C   0  0  0  0  0  0  0  0  0  0  0  0
   50.7460   52.9620   20.5190 C   0  0  0  0  0  0  0  0  0  0  0  0
   50.6880   54.0780   19.7650 N   0  0  0  0  0  0  0  0  0  0  0  0
   51.1420   54.1090   18.9080 H   0  0  0  0  0  0  0  0  0  0  0  0
   50.2630   52.9570   21.6320 O   0  0  0  0  0  0  0  0  0  0  0  0
   49.9710   55.1920   20.2180 C   0  0  0  0  0  0  0  0  0  0  0  0
   48.6840   55.4290   19.7540 C   0  0  0  0  0  0  0  0  0  0  0  0
   47.9800   56.5290   20.2040 C   0  0  0  0  0  0  0  0  0  0  0  0
   48.5560   57.3960   21.1140 C   0  0  0  0  0  0  0  0  0  0  0  0
   49.8370   57.1650   21.5800 C   0  0  0  0  0  0  0  0  0  0  0  0
   50.5450   56.0630   21.1390 C   0  0  0  0  0  0  0  0  0  0  0  0
   51.7960   55.8340   21.5970 F   0  0  0  0  0  0  0  0  0  0  0  0
  1  5  1  1  0  0  0
  1 12  1  0  0  0  0
  1  2  1  0  0  0  0
  3  4  1  0  0  0  0
  3 10  1  0  0  0  0
  4  5  1  0  0  0  0
  5  6  1  0  0  0  0
  7  4  2  0  0  0  0
  8  9  1  0  0  0  0
  9  3  1  0  0  0  0
 11 10  1  0  0  0  0
 12 15  2  0  0  0  0
 13 16  1  0  0  0  0
 13 12  1  0  0  0  0
 14 13  1  0  0  0  0
 16 21  2  0  0  0  0
 17 18  2  0  0  0  0
 17 16  1  0  0  0  0
 18 19  1  0  0  0  0
 19 20  2  0  0  0  0
 21 20  1  0  0  0  0
 21 22  1  0  0  0  0
M  END
>  <MODEL>
1

>  <REMARK>
  Name = ZINC62162502
                            x       y       z     vdW  Elec       q    Type
                         _______ _______ _______ _____ _____    ______ ____

>  <TORSDO>
F 5

>  <minimizedAffinity>
-7.1382250021452984

$$$$
ZINC62162502
 OpenBabel10211215083D

 22 22  0  0  1  0  0  0  0  0999 V2000
   51.4330   51.7880   19.8860 C   0  0  1  0  0  0  0  0  0  0  0  0
   52.3340   51.1470   20.9440 C   0  0  0  0  0  0  0  0  0  0  0  0
   48.7830   50.1360   17.9450 N   0  0  0  0  0  0  0  0  0  0  0  0
   49.7250   51.0200   18.3260 C   0  0  0  0  0  0  0  0  0  0  0  0
   50.4080   50.8270   19.4720 N   0  0  0  0  0  0  0  0  0  0  0  0
   50.2200   50.0500   20.0230 H   0  0  0  0  0  0  0  0  0  0  0  0
   49.9610   51.9930   17.6350 O   0  0  0  0  0  0  0  0  0  0  0  0
   48.6910   49.5340   15.5770 C   0  0  0  0  0  0  0  0  0  0  0  0
   48.0420   50.3460   16.6990 C   0  0  0  0  0  0  0  0  0  0  0  0
   48.4990   48.9640   18.7770 C   0  0  0  0  0  0  0  0  0  0  0  0
   47.0150   48.6110   18.6750 C   0  0  0  0  0  0  0  0  0  0  0  0
   50.7700   53.0110   20.4640 C   0  0  0  0  0  0  0  0  0  0  0  0
   50.7640   54.1660   19.7680 N   0  0  0  0  0  0  0  0  0  0  0  0
   51.2540   54.2320   18.9340 H   0  0  0  0  0  0  0  0  0  0  0  0
   50.2420   52.9570   21.5550 O   0  0  0  0  0  0  0  0  0  0  0  0
   50.0500   55.2690   20.2510 C   0  0  0  0  0  0  0  0  0  0  0  0
   50.6310   56.1230   21.1810 C   0  0  0  0  0  0  0  0  0  0  0  0
   49.9240   57.2100   21.6540 C   0  0  0  0  0  0  0  0  0  0  0  0
   48.6380   57.4510   21.2060 C   0  0  0  0  0  0  0  0  0  0  0  0
   48.0550   56.6050   20.2800 C   0  0  0  0  0  0  0  0  0  0  0  0
   48.7590   55.5180   19.7970 C   0  0  0  0  0  0  0  0  0  0  0  0
   48.1910   54.6930   18.8890 F   0  0  0  0  0  0  0  0  0  0  0  0
  1  5  1  1  0  0  0
  1 12  1  0  0  0  0
  1  2  1  0  0  0  0
  3  4  1  0  0  0  0
  3 10  1  0  0  0  0
  4  5  1  0  0  0  0
  5  6  1  0  0  0  0
  7  4  2  0  0  0  0
  8  9  1  0  0  0  0
  9  3  1  0  0  0  0
 11 10  1  0  0  0  0
 12 15  2  0  0  0  0
 13 16  1  0  0  0  0
 13 12  1  0  0  0  0
 14 13  1  0  0  0  0
 16 17  1  0  0  0  0
 17 18  2  0  0  0  0
 19 18  1  0  0  0  0
 20 19  2  0  0  0  0
 21 16  2  0  0  0  0
 21 20  1  0  0  0  0
 22 21  1  0  0  0  0
M  END
>  <MODEL>
2

>  <REMARK>
  Name = ZINC62162502
                            x       y       z     vdW  Elec       q    Type
                         _______ _______ _______ _____ _____    ______ ____

>  <TORSDO>
F 5

>  <minimizedAffinity>
-7.0991629341851752

$$$$
ZINC62162502
 OpenBabel10211215083D

 22 22  0  0  1  0  0  0  0  0999 V2000
   51.2800   51.0110   18.9580 C   0  0  1  0  0  0  0  0  0  0  0  0
   52.3550   50.9560   17.8700 C   0  0  0  0  0  0  0  0  0  0  0  0
   51.2000   54.0620   21.0080 N   0  0  0  0  0  0  0  0  0  0  0  0
   51.3880   52.7840   20.6270 C   0  0  0  0  0  0  0  0  0  0  0  0
   51.0760   52.4010   19.3720 N   0  0  0  0  0  0  0  0  0  0  0  0
   50.7140   53.0460   18.7440 H   0  0  0  0  0  0  0  0  0  0  0  0
   51.8410   51.9760   21.4130 O   0  0  0  0  0  0  0  0  0  0  0  0
   51.8350   55.9800   22.3850 C   0  0  0  0  0  0  0  0  0  0  0  0
   51.5410   54.4790   22.3700 C   0  0  0  0  0  0  0  0  0  0  0  0
   50.6550   55.0370   20.0590 C   0  0  0  0  0  0  0  0  0  0  0  0
   49.1330   55.0880   20.1960 C   0  0  0  0  0  0  0  0  0  0  0  0
   49.9890   50.4530   18.4170 C   0  0  0  0  0  0  0  0  0  0  0  0
   49.7850   49.1200   18.4030 N   0  0  0  0  0  0  0  0  0  0  0  0
   50.4980   48.5170   18.6650 H   0  0  0  0  0  0  0  0  0  0  0  0
   49.1330   51.2020   17.9960 O   0  0  0  0  0  0  0  0  0  0  0  0
   48.5430   48.6070   18.0100 C   0  0  0  0  0  0  0  0  0  0  0  0
   47.4700   48.6280   18.8910 C   0  0  0  0  0  0  0  0  0  0  0  0
   46.2460   48.1220   18.4990 C   0  0  0  0  0  0  0  0  0  0  0  0
   46.0880   47.5920   17.2310 C   0  0  0  0  0  0  0  0  0  0  0  0
   47.1530   47.5700   16.3500 C   0  0  0  0  0  0  0  0  0  0  0  0
   48.3790   48.0800   16.7330 C   0  0  0  0  0  0  0  0  0  0  0  0
   49.4190   48.0620   15.8700 F   0  0  0  0  0  0  0  0  0  0  0  0
  1  2  1  6  0  0  0
  1  5  1  0  0  0  0
  3  9  1  0  0  0  0
  4  3  1  0  0  0  0
  4  7  2  0  0  0  0
  5  4  1  0  0  0  0
  6  5  1  0  0  0  0
  9  8  1  0  0  0  0
 10 11  1  0  0  0  0
 10  3  1  0  0  0  0
 12  1  1  0  0  0  0
 13 12  1  0  0  0  0
 13 14  1  0  0  0  0
 15 12  2  0  0  0  0
 16 13  1  0  0  0  0
 16 17  2  0  0  0  0
 18 17  1  0  0  0  0
 19 18  2  0  0  0  0
 20 21  2  0  0  0  0
 20 19  1  0  0  0  0
 21 16  1  0  0  0  0
 22 21  1  0  0  0  0
M  END
>  <MODEL>
3

>  <REMARK>
  Name = ZINC62162502
                            x       y       z     vdW  Elec       q    Type
                         _______ _______ _______ _____ _____    ______ ____

>  <TORSDO>
F 5

>  <minimizedAffinity>
-6.8366500224898905

$$$$
ZINC62162502
 OpenBabel10211215083D

 22 22  0  0  1  0  0  0  0  0999 V2000
   51.0710   51.0370   19.0770 C   0  0  1  0  0  0  0  0  0  0  0  0
   52.3620   50.8400   18.2780 C   0  0  0  0  0  0  0  0  0  0  0  0
   51.1700   54.1230   21.0730 N   0  0  0  0  0  0  0  0  0  0  0  0
   51.2830   52.8290   20.7150 C   0  0  0  0  0  0  0  0  0  0  0  0
   50.9490   52.4430   19.4670 N   0  0  0  0  0  0  0  0  0  0  0  0
   50.6270   53.0980   18.8270 H   0  0  0  0  0  0  0  0  0  0  0  0
   51.6870   52.0090   21.5160 O   0  0  0  0  0  0  0  0  0  0  0  0
   51.8110   56.0470   22.4400 C   0  0  0  0  0  0  0  0  0  0  0  0
   51.5340   54.5420   22.4290 C   0  0  0  0  0  0  0  0  0  0  0  0
   50.6840   55.1110   20.1070 C   0  0  0  0  0  0  0  0  0  0  0  0
   49.1650   55.2390   20.2260 C   0  0  0  0  0  0  0  0  0  0  0  0
   49.8900   50.6460   18.2280 C   0  0  0  0  0  0  0  0  0  0  0  0
   49.7140   49.3580   17.8700 N   0  0  0  0  0  0  0  0  0  0  0  0
   50.3890   48.6970   18.0900 H   0  0  0  0  0  0  0  0  0  0  0  0
   49.0960   51.4890   17.8670 O   0  0  0  0  0  0  0  0  0  0  0  0
   48.5570   48.9750   17.1800 C   0  0  0  0  0  0  0  0  0  0  0  0
   48.5770   48.8610   15.7960 C   0  0  0  0  0  0  0  0  0  0  0  0
   47.4340   48.4830   15.1190 C   0  0  0  0  0  0  0  0  0  0  0  0
   46.2690   48.2190   15.8170 C   0  0  0  0  0  0  0  0  0  0  0  0
   46.2450   48.3300   17.1950 C   0  0  0  0  0  0  0  0  0  0  0  0
   47.3870   48.7030   17.8800 C   0  0  0  0  0  0  0  0  0  0  0  0
   47.3640   48.8070   19.2270 F   0  0  0  0  0  0  0  0  0  0  0  0
  1 12  1  6  0  0  0
  1  5  1  0  0  0  0
  2  1  1  0  0  0  0
  3  9  1  0  0  0  0
  4  3  1  0  0  0  0
  4  7  2  0  0  0  0
  5  4  1  0  0  0  0
  6  5  1  0  0  0  0
  9  8  1  0  0  0  0
 10 11  1  0  0  0  0
 10  3  1  0  0  0  0
 13 14  1  0  0  0  0
 13 12  1  0  0  0  0
 15 12  2  0  0  0  0
 16 13  1  0  0  0  0
 16 21  2  0  0  0  0
 17 16  1  0  0  0  0
 18 17  2  0  0  0  0
 18 19  1  0  0  0  0
 19 20  2  0  0  0  0
 20 21  1  0  0  0  0
 21 22  1  0  0  0  0
M  END
>  <MODEL>
4

>  <REMARK>
  Name = ZINC62162502
                            x       y       z     vdW  Elec       q    Type
                         _______ _______ _______ _____ _____    ______ ____

>  <TORSDO>
F 5

>  <minimizedAffinity>
-6.7178474929020293

$$$$
ZINC62162502
 OpenBabel10211215083D

 22 22  0  0  1  0  0  0  0  0999 V2000
   49.6810   50.2660   18.1270 C   0  0  1  0  0  0  0  0  0  0  0  0
   50.1010   49.5600   19.4180 C   0  0  0  0  0  0  0  0  0  0  0  0
   46.7940   48.6050   16.5700 N   0  0  0  0  0  0  0  0  0  0  0  0
   48.0620   48.9430   16.8750 C   0  0  0  0  0  0  0  0  0  0  0  0
   48.3030   49.8980   17.7960 N   0  0  0  0  0  0  0  0  0  0  0  0
   47.5620   50.3430   18.2380 H   0  0  0  0  0  0  0  0  0  0  0  0
   48.9900   48.3860   16.3210 O   0  0  0  0  0  0  0  0  0  0  0  0
   46.1840   48.2220   14.2330 C   0  0  0  0  0  0  0  0  0  0  0  0
   46.5330   47.5660   15.5710 C   0  0  0  0  0  0  0  0  0  0  0  0
   45.6760   49.2760   17.2390 C   0  0  0  0  0  0  0  0  0  0  0  0
   44.6710   48.2310   17.7260 C   0  0  0  0  0  0  0  0  0  0  0  0
   49.7710   51.7580   18.3180 C   0  0  0  0  0  0  0  0  0  0  0  0
   50.2910   52.2620   19.4550 N   0  0  0  0  0  0  0  0  0  0  0  0
   50.5330   51.6680   20.1820 H   0  0  0  0  0  0  0  0  0  0  0  0
   49.3770   52.5060   17.4480 O   0  0  0  0  0  0  0  0  0  0  0  0
   50.4820   53.6430   19.5840 C   0  0  0  0  0  0  0  0  0  0  0  0
   49.5100   54.4270   20.1910 C   0  0  0  0  0  0  0  0  0  0  0  0
   49.7020   55.7880   20.3180 C   0  0  0  0  0  0  0  0  0  0  0  0
   50.8610   56.3730   19.8410 C   0  0  0  0  0  0  0  0  0  0  0  0
   51.8320   55.5970   19.2360 C   0  0  0  0  0  0  0  0  0  0  0  0
   51.6500   54.2330   19.1110 C   0  0  0  0  0  0  0  0  0  0  0  0
   52.6010   53.4740   18.5250 F   0  0  0  0  0  0  0  0  0  0  0  0
  1  5  1  1  0  0  0
  1 12  1  0  0  0  0
  1  2  1  0  0  0  0
  3  4  1  0  0  0  0
  3 10  1  0  0  0  0
  4  5  1  0  0  0  0
  5  6  1  0  0  0  0
  7  4  2  0  0  0  0
  8  9  1  0  0  0  0
  9  3  1  0  0  0  0
 10 11  1  0  0  0  0
 12 13  1  0  0  0  0
 13 16  1  0  0  0  0
 13 14  1  0  0  0  0
 15 12  2  0  0  0  0
 16 17  2  0  0  0  0
 17 18  1  0  0  0  0
 19 18  2  0  0  0  0
 20 19  1  0  0  0  0
 21 20  2  0  0  0  0
 21 16  1  0  0  0  0
 22 21  1  0  0  0  0
M  END
>  <MODEL>
5

>  <REMARK>
  Name = ZINC62162502
                            x       y       z     vdW  Elec       q    Type
                         _______ _______ _______ _____ _____    ______ ____

>  <TORSDO>
F 5

>  <minimizedAffinity>
-6.6078439316085529

$$$$
ZINC62162502
 OpenBabel10211215083D

 22 22  0  0  1  0  0  0  0  0999 V2000
   51.5870   52.7500   19.4290 C   0  0  1  0  0  0  0  0  0  0  0  0
   52.8050   52.8540   18.5090 C   0  0  0  0  0  0  0  0  0  0  0  0
   50.7170   56.0360   20.8290 N   0  0  0  0  0  0  0  0  0  0  0  0
   51.2720   54.8180   20.6780 C   0  0  0  0  0  0  0  0  0  0  0  0
   50.9840   54.0740   19.5920 N   0  0  0  0  0  0  0  0  0  0  0  0
   50.3750   54.4160   18.9180 H   0  0  0  0  0  0  0  0  0  0  0  0
   52.0350   54.3890   21.5230 O   0  0  0  0  0  0  0  0  0  0  0  0
   52.0030   57.9610   21.6170 C   0  0  0  0  0  0  0  0  0  0  0  0
   51.0330   56.8450   22.0090 C   0  0  0  0  0  0  0  0  0  0  0  0
   49.7990   56.5530   19.8110 C   0  0  0  0  0  0  0  0  0  0  0  0
   48.3890   56.6480   20.3950 C   0  0  0  0  0  0  0  0  0  0  0  0
   50.5780   51.8090   18.8220 C   0  0  0  0  0  0  0  0  0  0  0  0
   50.0330   52.0890   17.6210 N   0  0  0  0  0  0  0  0  0  0  0  0
   50.2280   52.9330   17.1840 H   0  0  0  0  0  0  0  0  0  0  0  0
   50.2570   50.8000   19.4130 O   0  0  0  0  0  0  0  0  0  0  0  0
   49.1860   51.1600   17.0040 C   0  0  0  0  0  0  0  0  0  0  0  0
   47.8290   51.1540   17.2980 C   0  0  0  0  0  0  0  0  0  0  0  0
   46.9960   50.2370   16.6870 C   0  0  0  0  0  0  0  0  0  0  0  0
   47.5100   49.3250   15.7840 C   0  0  0  0  0  0  0  0  0  0  0  0
   48.8610   49.3280   15.4870 C   0  0  0  0  0  0  0  0  0  0  0  0
   49.7000   50.2460   16.0900 C   0  0  0  0  0  0  0  0  0  0  0  0
   51.0190   50.2520   15.7970 F   0  0  0  0  0  0  0  0  0  0  0  0
  1  2  1  6  0  0  0
  1  5  1  0  0  0  0
  3  9  1  0  0  0  0
  4  3  1  0  0  0  0
  4  7  2  0  0  0  0
  5  4  1  0  0  0  0
  6  5  1  0  0  0  0
  8  9  1  0  0  0  0
 10 11  1  0  0  0  0
 10  3  1  0  0  0  0
 12 15  2  0  0  0  0
 12  1  1  0  0  0  0
 13 12  1  0  0  0  0
 14 13  1  0  0  0  0
 16 17  1  0  0  0  0
 16 13  1  0  0  0  0
 18 17  2  0  0  0  0
 19 18  1  0  0  0  0
 20 19  2  0  0  0  0
 20 21  1  0  0  0  0
 21 16  2  0  0  0  0
 22 21  1  0  0  0  0
M  END
>  <MODEL>
6

>  <REMARK>
  Name = ZINC62162502
                            x       y       z     vdW  Elec       q    Type
                         _______ _______ _______ _____ _____    ______ ____

>  <TORSDO>
F 5

>  <minimizedAffinity>
-6.5612899276808969

$$$$
ZINC62162502
 OpenBabel10211215083D

 22 22  0  0  1  0  0  0  0  0999 V2000
   50.0720   49.8040   16.1560 C   0  0  1  0  0  0  0  0  0  0  0  0
   50.4460   50.0060   14.6850 C   0  0  0  0  0  0  0  0  0  0  0  0
   50.4190   52.6520   18.4550 N   0  0  0  0  0  0  0  0  0  0  0  0
   50.6030   51.4530   17.8700 C   0  0  0  0  0  0  0  0  0  0  0  0
   49.8720   51.1080   16.7920 N   0  0  0  0  0  0  0  0  0  0  0  0
   49.2110   51.7240   16.4370 H   0  0  0  0  0  0  0  0  0  0  0  0
   51.4320   50.6810   18.3140 O   0  0  0  0  0  0  0  0  0  0  0  0
   52.4430   53.8210   19.1740 C   0  0  0  0  0  0  0  0  0  0  0  0
   51.2150   53.0270   19.6260 C   0  0  0  0  0  0  0  0  0  0  0  0
   49.4220   53.5830   17.9190 C   0  0  0  0  0  0  0  0  0  0  0  0
   48.7990   54.3810   19.0650 C   0  0  0  0  0  0  0  0  0  0  0  0
   48.8010   49.0000   16.2450 C   0  0  0  0  0  0  0  0  0  0  0  0
   47.6510   49.5010   15.7540 N   0  0  0  0  0  0  0  0  0  0  0  0
   47.6220   50.4100   15.4160 H   0  0  0  0  0  0  0  0  0  0  0  0
   48.8140   47.9010   16.7590 O   0  0  0  0  0  0  0  0  0  0  0  0
   46.4960   48.7100   15.7320 C   0  0  0  0  0  0  0  0  0  0  0  0
   46.1930   47.9500   14.6100 C   0  0  0  0  0  0  0  0  0  0  0  0
   45.0540   47.1700   14.5930 C   0  0  0  0  0  0  0  0  0  0  0  0
   44.2120   47.1450   15.6900 C   0  0  0  0  0  0  0  0  0  0  0  0
   44.5100   47.8990   16.8100 C   0  0  0  0  0  0  0  0  0  0  0  0
   45.6520   48.6780   16.8370 C   0  0  0  0  0  0  0  0  0  0  0  0
   45.9440   49.4110   17.9340 F   0  0  0  0  0  0  0  0  0  0  0  0
  1  2  1  6  0  0  0
  1 12  1  0  0  0  0
  1  5  1  0  0  0  0
  3  9  1  0  0  0  0
  4  7  2  0  0  0  0
  4  3  1  0  0  0  0
  5  4  1  0  0  0  0
  6  5  1  0  0  0  0
  8  9  1  0  0  0  0
 10  3  1  0  0  0  0
 10 11  1  0  0  0  0
 12 15  2  0  0  0  0
 13 12  1  0  0  0  0
 14 13  1  0  0  0  0
 16 13  1  0  0  0  0
 16 21  2  0  0  0  0
 17 16  1  0  0  0  0
 18 17  2  0  0  0  0
 18 19  1  0  0  0  0
 19 20  2  0  0  0  0
 20 21  1  0  0  0  0
 21 22  1  0  0  0  0
M  END
>  <MODEL>
7

>  <REMARK>
  Name = ZINC62162502
                            x       y       z     vdW  Elec       q    Type
                         _______ _______ _______ _____ _____    ______ ____

>  <TORSDO>
F 5

>  <minimizedAffinity>
-6.4032291011906306

$$$$
ZINC62162502
 OpenBabel10211215083D

 22 22  0  0  1  0  0  0  0  0999 V2000
   52.2510   51.9710   18.6590 C   0  0  1  0  0  0  0  0  0  0  0  0
   52.3500   51.0240   19.8570 C   0  0  0  0  0  0  0  0  0  0  0  0
   49.3420   50.2750   17.1830 N   0  0  0  0  0  0  0  0  0  0  0  0
   50.2020   50.7820   18.0880 C   0  0  0  0  0  0  0  0  0  0  0  0
   51.3160   51.4190   17.6760 N   0  0  0  0  0  0  0  0  0  0  0  0
   51.5000   51.5100   16.7270 H   0  0  0  0  0  0  0  0  0  0  0  0
   49.9710   50.6680   19.2760 O   0  0  0  0  0  0  0  0  0  0  0  0
   46.8990   50.3850   17.2000 C   0  0  0  0  0  0  0  0  0  0  0  0
   48.1300   49.5850   17.6310 C   0  0  0  0  0  0  0  0  0  0  0  0
   49.6190   50.4130   15.7510 C   0  0  0  0  0  0  0  0  0  0  0  0
   49.6260   49.0320   15.0960 C   0  0  0  0  0  0  0  0  0  0  0  0
   51.7570   53.3170   19.1220 C   0  0  0  0  0  0  0  0  0  0  0  0
   50.9340   53.4030   20.1860 N   0  0  0  0  0  0  0  0  0  0  0  0
   50.5950   52.5960   20.6040 H   0  0  0  0  0  0  0  0  0  0  0  0
   52.1010   54.3230   18.5380 O   0  0  0  0  0  0  0  0  0  0  0  0
   50.5680   54.6580   20.6870 C   0  0  0  0  0  0  0  0  0  0  0  0
   51.3740   55.2980   21.6200 C   0  0  0  0  0  0  0  0  0  0  0  0
   51.0110   56.5360   22.1120 C   0  0  0  0  0  0  0  0  0  0  0  0
   49.8440   57.1400   21.6790 C   0  0  0  0  0  0  0  0  0  0  0  0
   49.0380   56.5070   20.7500 C   0  0  0  0  0  0  0  0  0  0  0  0
   49.3990   55.2710   20.2480 C   0  0  0  0  0  0  0  0  0  0  0  0
   48.6140   54.6550   19.3380 F   0  0  0  0  0  0  0  0  0  0  0  0
  1  5  1  1  0  0  0
  1 12  1  0  0  0  0
  1  2  1  0  0  0  0
  3  9  1  0  0  0  0
  3  4  1  0  0  0  0
  4  7  2  0  0  0  0
  5  4  1  0  0  0  0
  6  5  1  0  0  0  0
  8  9  1  0  0  0  0
 10  3  1  0  0  0  0
 11 10  1  0  0  0  0
 12 13  1  0  0  0  0
 13 14  1  0  0  0  0
 13 16  1  0  0  0  0
 15 12  2  0  0  0  0
 16 17  1  0  0  0  0
 17 18  2  0  0  0  0
 19 18  1  0  0  0  0
 20 19  2  0  0  0  0
 21 16  2  0  0  0  0
 21 20  1  0  0  0  0
 22 21  1  0  0  0  0
M  END
>  <MODEL>
8

>  <REMARK>
  Name = ZINC62162502
                            x       y       z     vdW  Elec       q    Type
                         _______ _______ _______ _____ _____    ______ ____

>  <TORSDO>
F 5

>  <minimizedAffinity>
-6.3794973332481266

$$$$
ZINC62162502
 OpenBabel10211215083D

 22 22  0  0  1  0  0  0  0  0999 V2000
   51.8500   55.2450   21.3170 C   0  0  1  0  0  0  0  0  0  0  0  0
   51.6860   55.3810   22.8320 C   0  0  0  0  0  0  0  0  0  0  0  0
   51.6530   52.0890   19.4410 N   0  0  0  0  0  0  0  0  0  0  0  0
   52.0230   53.3270   19.8240 C   0  0  0  0  0  0  0  0  0  0  0  0
   51.4490   53.9000   20.9010 N   0  0  0  0  0  0  0  0  0  0  0  0
   50.7680   53.4200   21.4000 H   0  0  0  0  0  0  0  0  0  0  0  0
   52.8750   53.9270   19.1990 O   0  0  0  0  0  0  0  0  0  0  0  0
   51.1960   50.8490   17.3840 C   0  0  0  0  0  0  0  0  0  0  0  0
   52.2780   51.4660   18.2720 C   0  0  0  0  0  0  0  0  0  0  0  0
   50.6270   51.3650   20.1960 C   0  0  0  0  0  0  0  0  0  0  0  0
   51.2770   50.2220   20.9760 C   0  0  0  0  0  0  0  0  0  0  0  0
   50.9840   56.2650   20.6240 C   0  0  0  0  0  0  0  0  0  0  0  0
   49.6620   56.0440   20.4860 N   0  0  0  0  0  0  0  0  0  0  0  0
   49.2810   55.1950   20.7590 H   0  0  0  0  0  0  0  0  0  0  0  0
   51.4770   57.2860   20.1910 O   0  0  0  0  0  0  0  0  0  0  0  0
   48.8380   57.0400   19.9470 C   0  0  0  0  0  0  0  0  0  0  0  0
   48.4950   57.0090   18.6020 C   0  0  0  0  0  0  0  0  0  0  0  0
   47.6820   57.9930   18.0750 C   0  0  0  0  0  0  0  0  0  0  0  0
   47.2100   59.0100   18.8830 C   0  0  0  0  0  0  0  0  0  0  0  0
   47.5480   59.0460   20.2240 C   0  0  0  0  0  0  0  0  0  0  0  0
   48.3560   58.0610   20.7600 C   0  0  0  0  0  0  0  0  0  0  0  0
   48.6830   58.0930   22.0710 F   0  0  0  0  0  0  0  0  0  0  0  0
  1 12  1  1  0  0  0
  1  2  1  0  0  0  0
  3  4  1  0  0  0  0
  3 10  1  0  0  0  0
  4  5  1  0  0  0  0
  5  1  1  0  0  0  0
  5  6  1  0  0  0  0
  7  4  2  0  0  0  0
  8  9  1  0  0  0  0
  9  3  1  0  0  0  0
 10 11  1  0  0  0  0
 13 12  1  0  0  0  0
 13 14  1  0  0  0  0
 15 12  2  0  0  0  0
 16 13  1  0  0  0  0
 16 21  2  0  0  0  0
 17 16  1  0  0  0  0
 18 17  2  0  0  0  0
 18 19  1  0  0  0  0
 19 20  2  0  0  0  0
 20 21  1  0  0  0  0
 21 22  1  0  0  0  0
M  END
>  <MODEL>
9

>  <REMARK>
  Name = ZINC62162502
                            x       y       z     vdW  Elec       q    Type
                         _______ _______ _______ _____ _____    ______ ____

>  <TORSDO>
F 5

>  <minimizedAffinity>
-6.3303105404932376

$$$$
ZINC48087940
 OpenBabel10211215103D

 23 23  0  0  0  0  0  0  0  0999 V2000
   50.8510   53.2180   18.2880 N   0  0  0  0  0  0  0  0  0  0  0  0
   50.0440   53.7220   18.4820 H   0  0  0  0  0  0  0  0  0  0  0  0
   52.0560   53.7230   18.6150 C   0  0  0  0  0  0  0  0  0  0  0  0
   53.0640   53.0930   18.3730 O   0  0  0  0  0  0  0  0  0  0  0  0
   50.7610   51.9650   17.6690 N   0  0  0  0  0  0  0  0  0  0  0  0
   51.5530   51.5530   17.2910 H   0  0  0  0  0  0  0  0  0  0  0  0
   49.5730   51.3320   17.5970 C   0  0  0  0  0  0  0  0  0  0  0  0
   48.4390   51.7760   16.3950 S   0  0  0  0  0  0  0  0  0  0  0  0
   49.2780   50.3500   18.4720 N   0  0  0  0  0  0  0  0  0  0  0  0
   49.4010   50.4950   19.4230 H   0  0  0  0  0  0  0  0  0  0  0  0
   48.7710   49.0640   17.9870 C   0  0  0  0  0  0  0  0  0  0  0  0
   46.2790   49.0360   17.8190 C   0  0  0  0  0  0  0  0  0  0  0  0
   47.4740   48.7170   18.7200 C   0  0  0  0  0  0  0  0  0  0  0  0
   52.1530   55.0720   19.2810 C   0  0  0  0  0  0  0  0  0  0  0  0
   51.8510   54.9260   20.7740 C   0  0  0  0  0  0  0  0  0  0  0  0
   50.4490   54.7200   20.9580 O   0  0  0  0  0  0  0  0  0  0  0  0
   49.6540   55.8220   20.9240 C   0  0  0  0  0  0  0  0  0  0  0  0
   49.9630   56.9260   21.7030 C   0  0  0  0  0  0  0  0  0  0  0  0
   49.1530   58.0450   21.6670 C   0  0  0  0  0  0  0  0  0  0  0  0
   48.0330   58.0660   20.8560 C   0  0  0  0  0  0  0  0  0  0  0  0
   47.7210   56.9660   20.0780 C   0  0  0  0  0  0  0  0  0  0  0  0
   48.5320   55.8460   20.1050 C   0  0  0  0  0  0  0  0  0  0  0  0
   48.2300   54.7730   19.3400 F   0  0  0  0  0  0  0  0  0  0  0  0
  1  2  1  0  0  0  0
  1  3  1  0  0  0  0
  3 14  1  0  0  0  0
  4  3  2  0  0  0  0
  5  1  1  0  0  0  0
  6  5  1  0  0  0  0
  7  5  1  0  0  0  0
  7  9  1  0  0  0  0
  8  7  2  0  0  0  0
  9 10  1  0  0  0  0
 11  9  1  0  0  0  0
 11 13  1  0  0  0  0
 12 13  1  0  0  0  0
 14 15  1  0  0  0  0
 15 16  1  0  0  0  0
 17 16  1  0  0  0  0
 17 18  2  0  0  0  0
 19 18  1  0  0  0  0
 20 19  2  0  0  0  0
 21 22  2  0  0  0  0
 21 20  1  0  0  0  0
 22 17  1  0  0  0  0
 23 22  1  0  0  0  0
M  END
>  <MODEL>
1

>  <REMARK>
  Name = ZINC48087940
                            x       y       z     vdW  Elec       q    Type
                         _______ _______ _______ _____ _____    ______ ____

>  <TORSDO>
F 9

>  <minimizedAffinity>
-6.8195289387442148

$$$$
ZINC48087940
 OpenBabel10211215103D

 23 23  0  0  0  0  0  0  0  0999 V2000
   51.2800   50.2830   16.1860 N   0  0  0  0  0  0  0  0  0  0  0  0
   50.4710   50.1160   16.6940 H   0  0  0  0  0  0  0  0  0  0  0  0
   51.3100   50.0270   14.8630 C   0  0  0  0  0  0  0  0  0  0  0  0
   52.3210   50.2370   14.2270 O   0  0  0  0  0  0  0  0  0  0  0  0
   52.4170   50.7910   16.8270 N   0  0  0  0  0  0  0  0  0  0  0  0
   53.2280   50.9530   16.3200 H   0  0  0  0  0  0  0  0  0  0  0  0
   52.3850   51.0530   18.1490 C   0  0  0  0  0  0  0  0  0  0  0  0
   52.2810   52.6720   18.6970 S   0  0  0  0  0  0  0  0  0  0  0  0
   52.4330   50.0420   19.0390 N   0  0  0  0  0  0  0  0  0  0  0  0
   53.0250   49.2890   18.8840 H   0  0  0  0  0  0  0  0  0  0  0  0
   51.5940   50.0810   20.2370 C   0  0  0  0  0  0  0  0  0  0  0  0
   49.5360   49.0690   19.2440 C   0  0  0  0  0  0  0  0  0  0  0  0
   50.6690   48.8630   20.2520 C   0  0  0  0  0  0  0  0  0  0  0  0
   50.0860   49.4810   14.1730 C   0  0  0  0  0  0  0  0  0  0  0  0
   49.1460   48.8670   15.2120 C   0  0  0  0  0  0  0  0  0  0  0  0
   48.0470   49.7510   15.4410 O   0  0  0  0  0  0  0  0  0  0  0  0
   46.9120   49.2040   15.9540 C   0  0  0  0  0  0  0  0  0  0  0  0
   46.5390   49.4780   17.2610 C   0  0  0  0  0  0  0  0  0  0  0  0
   45.3850   48.9220   17.7800 C   0  0  0  0  0  0  0  0  0  0  0  0
   44.6030   48.0910   16.9990 C   0  0  0  0  0  0  0  0  0  0  0  0
   44.9730   47.8140   15.6950 C   0  0  0  0  0  0  0  0  0  0  0  0
   46.1230   48.3740   15.1680 C   0  0  0  0  0  0  0  0  0  0  0  0
   46.4810   48.1090   13.8930 F   0  0  0  0  0  0  0  0  0  0  0  0
  1  2  1  0  0  0  0
  1  5  1  0  0  0  0
  3  1  1  0  0  0  0
  4  3  2  0  0  0  0
  5  7  1  0  0  0  0
  6  5  1  0  0  0  0
  7  8  2  0  0  0  0
  7  9  1  0  0  0  0
  9 11  1  0  0  0  0
 10  9  1  0  0  0  0
 11 13  1  0  0  0  0
 12 13  1  0  0  0  0
 14  3  1  0  0  0  0
 14 15  1  0  0  0  0
 15 16  1  0  0  0  0
 16 17  1  0  0  0  0
 17 18  2  0  0  0  0
 18 19  1  0  0  0  0
 20 19  2  0  0  0  0
 21 20  1  0  0  0  0
 22 21  2  0  0  0  0
 22 17  1  0  0  0  0
 23 22  1  0  0  0  0
M  END
>  <MODEL>
2

>  <REMARK>
  Name = ZINC48087940
                            x       y       z     vdW  Elec       q    Type
                         _______ _______ _______ _____ _____    ______ ____

>  <TORSDO>
F 9

>  <minimizedAffinity>
-6.8147828580962946

$$$$
ZINC48087940
 OpenBabel10211215103D

 23 23  0  0  0  0  0  0  0  0999 V2000
   52.1230   51.9780   22.1410 N   0  0  0  0  0  0  0  0  0  0  0  0
   53.0150   52.0760   22.5100 H   0  0  0  0  0  0  0  0  0  0  0  0
   51.2830   53.0310   22.1180 C   0  0  0  0  0  0  0  0  0  0  0  0
   50.1690   52.9080   21.6550 O   0  0  0  0  0  0  0  0  0  0  0  0
   51.7090   50.7410   21.6290 N   0  0  0  0  0  0  0  0  0  0  0  0
   51.2010   50.1310   22.1860 H   0  0  0  0  0  0  0  0  0  0  0  0
   52.0190   50.3970   20.3630 C   0  0  0  0  0  0  0  0  0  0  0  0
   52.7020   51.5570   19.3050 S   0  0  0  0  0  0  0  0  0  0  0  0
   51.7930   49.1410   19.9300 N   0  0  0  0  0  0  0  0  0  0  0  0
   52.5370   48.5780   19.6660 H   0  0  0  0  0  0  0  0  0  0  0  0
   50.4240   48.6260   19.8610 C   0  0  0  0  0  0  0  0  0  0  0  0
   48.2290   48.9440   18.7110 C   0  0  0  0  0  0  0  0  0  0  0  0
   49.5410   49.6230   19.1080 C   0  0  0  0  0  0  0  0  0  0  0  0
   51.7280   54.3620   22.6670 C   0  0  0  0  0  0  0  0  0  0  0  0
   51.5870   55.4340   21.5850 C   0  0  0  0  0  0  0  0  0  0  0  0
   50.7180   56.4690   22.0510 O   0  0  0  0  0  0  0  0  0  0  0  0
   49.6640   56.7940   21.2550 C   0  0  0  0  0  0  0  0  0  0  0  0
   49.3750   56.0260   20.1380 C   0  0  0  0  0  0  0  0  0  0  0  0
   48.3030   56.3580   19.3310 C   0  0  0  0  0  0  0  0  0  0  0  0
   47.5200   57.4560   19.6350 C   0  0  0  0  0  0  0  0  0  0  0  0
   47.8050   58.2250   20.7480 C   0  0  0  0  0  0  0  0  0  0  0  0
   48.8730   57.8920   21.5630 C   0  0  0  0  0  0  0  0  0  0  0  0
   49.1480   58.6400   22.6540 F   0  0  0  0  0  0  0  0  0  0  0  0
  1  2  1  0  0  0  0
  3  1  1  0  0  0  0
  3 14  1  0  0  0  0
  4  3  2  0  0  0  0
  5  1  1  0  0  0  0
  5  6  1  0  0  0  0
  7  5  1  0  0  0  0
  8  7  2  0  0  0  0
  9  7  1  0  0  0  0
 10  9  1  0  0  0  0
 11  9  1  0  0  0  0
 12 13  1  0  0  0  0
 13 11  1  0  0  0  0
 15 16  1  0  0  0  0
 15 14  1  0  0  0  0
 17 22  1  0  0  0  0
 17 16  1  0  0  0  0
 18 17  2  0  0  0  0
 19 20  2  0  0  0  0
 19 18  1  0  0  0  0
 20 21  1  0  0  0  0
 21 22  2  0  0  0  0
 22 23  1  0  0  0  0
M  END
>  <MODEL>
3

>  <REMARK>
  Name = ZINC48087940
                            x       y       z     vdW  Elec       q    Type
                         _______ _______ _______ _____ _____    ______ ____

>  <TORSDO>
F 9

>  <minimizedAffinity>
-6.7892829316563379

$$$$
ZINC48087940
 OpenBabel10211215103D

 23 23  0  0  0  0  0  0  0  0999 V2000
   49.7280   51.9370   18.3040 N   0  0  0  0  0  0  0  0  0  0  0  0
   49.7220   52.4430   19.1320 H   0  0  0  0  0  0  0  0  0  0  0  0
   48.9540   52.3230   17.2720 C   0  0  0  0  0  0  0  0  0  0  0  0
   48.9620   51.6900   16.2370 O   0  0  0  0  0  0  0  0  0  0  0  0
   50.5440   50.8040   18.1830 N   0  0  0  0  0  0  0  0  0  0  0  0
   51.1140   50.6980   17.4060 H   0  0  0  0  0  0  0  0  0  0  0  0
   50.5350   49.8610   19.1470 C   0  0  0  0  0  0  0  0  0  0  0  0
   51.2630   50.1810   20.6630 S   0  0  0  0  0  0  0  0  0  0  0  0
   49.9520   48.6680   18.9170 N   0  0  0  0  0  0  0  0  0  0  0  0
   50.2640   47.8780   19.3860 H   0  0  0  0  0  0  0  0  0  0  0  0
   48.8480   48.5640   17.9600 C   0  0  0  0  0  0  0  0  0  0  0  0
   46.4870   49.3240   17.6590 C   0  0  0  0  0  0  0  0  0  0  0  0
   47.5250   48.8440   18.6750 C   0  0  0  0  0  0  0  0  0  0  0  0
   48.0760   53.5410   17.4020 C   0  0  0  0  0  0  0  0  0  0  0  0
   48.8930   54.6990   17.9780 C   0  0  0  0  0  0  0  0  0  0  0  0
   48.9390   54.5870   19.4020 O   0  0  0  0  0  0  0  0  0  0  0  0
   48.8930   55.7440   20.1140 C   0  0  0  0  0  0  0  0  0  0  0  0
   47.8250   56.6140   19.9570 C   0  0  0  0  0  0  0  0  0  0  0  0
   47.7810   57.7900   20.6820 C   0  0  0  0  0  0  0  0  0  0  0  0
   48.8000   58.1010   21.5630 C   0  0  0  0  0  0  0  0  0  0  0  0
   49.8670   57.2370   21.7210 C   0  0  0  0  0  0  0  0  0  0  0  0
   49.9130   56.0550   21.0040 C   0  0  0  0  0  0  0  0  0  0  0  0
   50.9530   55.2070   21.1630 F   0  0  0  0  0  0  0  0  0  0  0  0
  1  2  1  0  0  0  0
  3 14  1  0  0  0  0
  3  1  1  0  0  0  0
  4  3  2  0  0  0  0
  5  1  1  0  0  0  0
  5  7  1  0  0  0  0
  6  5  1  0  0  0  0
  7  8  2  0  0  0  0
  9  7  1  0  0  0  0
  9 10  1  0  0  0  0
 11 13  1  0  0  0  0
 11  9  1  0  0  0  0
 12 13  1  0  0  0  0
 14 15  1  0  0  0  0
 15 16  1  0  0  0  0
 16 17  1  0  0  0  0
 17 22  1  0  0  0  0
 18 17  2  0  0  0  0
 18 19  1  0  0  0  0
 19 20  2  0  0  0  0
 20 21  1  0  0  0  0
 22 23  1  0  0  0  0
 22 21  2  0  0  0  0
M  END
>  <MODEL>
4

>  <REMARK>
  Name = ZINC48087940
                            x       y       z     vdW  Elec       q    Type
                         _______ _______ _______ _____ _____    ______ ____

>  <TORSDO>
F 9

>  <minimizedAffinity>
-6.7858915518311216

$$$$
ZINC48087940
 OpenBabel10211215103D

 23 23  0  0  0  0  0  0  0  0999 V2000
   50.6170   50.3480   16.2810 N   0  0  0  0  0  0  0  0  0  0  0  0
   49.8420   50.4430   16.8560 H   0  0  0  0  0  0  0  0  0  0  0  0
   50.4590   50.0140   14.9860 C   0  0  0  0  0  0  0  0  0  0  0  0
   51.4280   49.8960   14.2660 O   0  0  0  0  0  0  0  0  0  0  0  0
   51.9020   50.5590   16.7980 N   0  0  0  0  0  0  0  0  0  0  0  0
   52.6790   50.2520   16.3060 H   0  0  0  0  0  0  0  0  0  0  0  0
   52.0580   51.1890   17.9790 C   0  0  0  0  0  0  0  0  0  0  0  0
   52.5030   50.2980   19.3710 S   0  0  0  0  0  0  0  0  0  0  0  0
   51.8650   52.5200   18.0650 N   0  0  0  0  0  0  0  0  0  0  0  0
   51.8620   53.0620   17.2600 H   0  0  0  0  0  0  0  0  0  0  0  0
   51.6580   53.1480   19.3720 C   0  0  0  0  0  0  0  0  0  0  0  0
   49.4620   53.9170   18.4620 C   0  0  0  0  0  0  0  0  0  0  0  0
   50.1590   53.2570   19.6540 C   0  0  0  0  0  0  0  0  0  0  0  0
   49.0770   49.7860   14.4290 C   0  0  0  0  0  0  0  0  0  0  0  0
   48.3120   48.8240   15.3410 C   0  0  0  0  0  0  0  0  0  0  0  0
   47.6120   49.5690   16.3390 O   0  0  0  0  0  0  0  0  0  0  0  0
   46.6730   48.9020   17.0620 C   0  0  0  0  0  0  0  0  0  0  0  0
   45.4500   48.5890   16.4910 C   0  0  0  0  0  0  0  0  0  0  0  0
   44.4980   47.9110   17.2290 C   0  0  0  0  0  0  0  0  0  0  0  0
   44.7630   47.5440   18.5350 C   0  0  0  0  0  0  0  0  0  0  0  0
   45.9820   47.8550   19.1080 C   0  0  0  0  0  0  0  0  0  0  0  0
   46.9410   48.5280   18.3730 C   0  0  0  0  0  0  0  0  0  0  0  0
   48.1350   48.8260   18.9320 F   0  0  0  0  0  0  0  0  0  0  0  0
  1  5  1  0  0  0  0
  1  2  1  0  0  0  0
  3  1  1  0  0  0  0
  4  3  2  0  0  0  0
  5  7  1  0  0  0  0
  6  5  1  0  0  0  0
  7  9  1  0  0  0  0
  7  8  2  0  0  0  0
  9 11  1  0  0  0  0
 10  9  1  0  0  0  0
 11 13  1  0  0  0  0
 12 13  1  0  0  0  0
 14  3  1  0  0  0  0
 14 15  1  0  0  0  0
 15 16  1  0  0  0  0
 16 17  1  0  0  0  0
 17 22  1  0  0  0  0
 18 17  2  0  0  0  0
 18 19  1  0  0  0  0
 19 20  2  0  0  0  0
 20 21  1  0  0  0  0
 22 23  1  0  0  0  0
 22 21  2  0  0  0  0
M  END
>  <MODEL>
5

>  <REMARK>
  Name = ZINC48087940
                            x       y       z     vdW  Elec       q    Type
                         _______ _______ _______ _____ _____    ______ ____

>  <TORSDO>
F 9

>  <minimizedAffinity>
-6.7458033694248991

$$$$
ZINC48087940
 OpenBabel10211215103D

 23 23  0  0  0  0  0  0  0  0999 V2000
   50.7630   50.6750   19.9560 N   0  0  0  0  0  0  0  0  0  0  0  0
   49.9080   50.9970   20.2840 H   0  0  0  0  0  0  0  0  0  0  0  0
   51.9050   51.0670   20.5520 C   0  0  0  0  0  0  0  0  0  0  0  0
   52.9730   50.6640   20.1420 O   0  0  0  0  0  0  0  0  0  0  0  0
   50.8080   49.8010   18.8620 N   0  0  0  0  0  0  0  0  0  0  0  0
   51.5070   49.1310   18.8050 H   0  0  0  0  0  0  0  0  0  0  0  0
   49.8800   49.8920   17.8880 C   0  0  0  0  0  0  0  0  0  0  0  0
   49.4500   51.4230   17.2570 S   0  0  0  0  0  0  0  0  0  0  0  0
   49.2920   48.7770   17.4110 N   0  0  0  0  0  0  0  0  0  0  0  0
   49.8360   48.0300   17.1170 H   0  0  0  0  0  0  0  0  0  0  0  0
   47.8320   48.6930   17.3370 C   0  0  0  0  0  0  0  0  0  0  0  0
   45.9850   47.8060   18.7670 C   0  0  0  0  0  0  0  0  0  0  0  0
   47.2500   48.6670   18.7510 C   0  0  0  0  0  0  0  0  0  0  0  0
   51.8570   52.0070   21.7290 C   0  0  0  0  0  0  0  0  0  0  0  0
   50.6130   52.8920   21.6250 C   0  0  0  0  0  0  0  0  0  0  0  0
   50.8030   53.8600   20.5900 O   0  0  0  0  0  0  0  0  0  0  0  0
   50.0580   54.9950   20.6640 C   0  0  0  0  0  0  0  0  0  0  0  0
   48.8700   55.0930   19.9570 C   0  0  0  0  0  0  0  0  0  0  0  0
   48.1150   56.2490   20.0340 C   0  0  0  0  0  0  0  0  0  0  0  0
   48.5430   57.3070   20.8130 C   0  0  0  0  0  0  0  0  0  0  0  0
   49.7290   57.2130   21.5190 C   0  0  0  0  0  0  0  0  0  0  0  0
   50.4850   56.0570   21.4520 C   0  0  0  0  0  0  0  0  0  0  0  0
   51.6400   55.9630   22.1460 F   0  0  0  0  0  0  0  0  0  0  0  0
  1  2  1  0  0  0  0
  1  3  1  0  0  0  0
  3 14  1  0  0  0  0
  4  3  2  0  0  0  0
  5  1  1  0  0  0  0
  6  5  1  0  0  0  0
  7  5  1  0  0  0  0
  8  7  2  0  0  0  0
  9  7  1  0  0  0  0
 10  9  1  0  0  0  0
 11  9  1  0  0  0  0
 11 13  1  0  0  0  0
 13 12  1  0  0  0  0
 15 14  1  0  0  0  0
 16 17  1  0  0  0  0
 16 15  1  0  0  0  0
 17 22  2  0  0  0  0
 18 19  2  0  0  0  0
 18 17  1  0  0  0  0
 19 20  1  0  0  0  0
 20 21  2  0  0  0  0
 22 21  1  0  0  0  0
 22 23  1  0  0  0  0
M  END
>  <MODEL>
6

>  <REMARK>
  Name = ZINC48087940
                            x       y       z     vdW  Elec       q    Type
                         _______ _______ _______ _____ _____    ______ ____

>  <TORSDO>
F 9

>  <minimizedAffinity>
-6.6962698077117899

$$$$
ZINC48087940
 OpenBabel10211215103D

 23 23  0  0  0  0  0  0  0  0999 V2000
   51.6020   53.1370   19.1750 N   0  0  0  0  0  0  0  0  0  0  0  0
   50.7890   52.7340   19.5170 H   0  0  0  0  0  0  0  0  0  0  0  0
   52.3940   52.4470   18.3320 C   0  0  0  0  0  0  0  0  0  0  0  0
   53.4110   52.9530   17.9040 O   0  0  0  0  0  0  0  0  0  0  0  0
   51.9510   54.4400   19.5560 N   0  0  0  0  0  0  0  0  0  0  0  0
   52.2760   55.0680   18.8930 H   0  0  0  0  0  0  0  0  0  0  0  0
   51.8360   54.8180   20.8450 C   0  0  0  0  0  0  0  0  0  0  0  0
   51.5260   53.6480   22.0550 S   0  0  0  0  0  0  0  0  0  0  0  0
   51.9650   56.1180   21.1800 N   0  0  0  0  0  0  0  0  0  0  0  0
   52.7560   56.6100   20.9130 H   0  0  0  0  0  0  0  0  0  0  0  0
   50.9100   56.7840   21.9470 C   0  0  0  0  0  0  0  0  0  0  0  0
   48.7940   58.0880   21.6940 C   0  0  0  0  0  0  0  0  0  0  0  0
   49.7110   57.0550   21.0360 C   0  0  0  0  0  0  0  0  0  0  0  0
   52.0190   51.0460   17.9210 C   0  0  0  0  0  0  0  0  0  0  0  0
   50.7140   50.6450   18.6110 C   0  0  0  0  0  0  0  0  0  0  0  0
   49.6050   51.1040   17.8350 O   0  0  0  0  0  0  0  0  0  0  0  0
   48.4710   50.3550   17.8780 C   0  0  0  0  0  0  0  0  0  0  0  0
   48.4250   49.2070   18.6540 C   0  0  0  0  0  0  0  0  0  0  0  0
   47.2710   48.4480   18.6950 C   0  0  0  0  0  0  0  0  0  0  0  0
   46.1620   48.8300   17.9630 C   0  0  0  0  0  0  0  0  0  0  0  0
   46.2040   49.9740   17.1870 C   0  0  0  0  0  0  0  0  0  0  0  0
   47.3540   50.7410   17.1470 C   0  0  0  0  0  0  0  0  0  0  0  0
   47.3930   51.8620   16.3940 F   0  0  0  0  0  0  0  0  0  0  0  0
  1  2  1  0  0  0  0
  1  5  1  0  0  0  0
  3  1  1  0  0  0  0
  4  3  2  0  0  0  0
  5  7  1  0  0  0  0
  6  5  1  0  0  0  0
  7  9  1  0  0  0  0
  7  8  2  0  0  0  0
  9 11  1  0  0  0  0
 10  9  1  0  0  0  0
 13 12  1  0  0  0  0
 13 11  1  0  0  0  0
 14  3  1  0  0  0  0
 14 15  1  0  0  0  0
 16 17  1  0  0  0  0
 16 15  1  0  0  0  0
 17 18  2  0  0  0  0
 18 19  1  0  0  0  0
 20 19  2  0  0  0  0
 21 20  1  0  0  0  0
 22 21  2  0  0  0  0
 22 17  1  0  0  0  0
 23 22  1  0  0  0  0
M  END
>  <MODEL>
7

>  <REMARK>
  Name = ZINC48087940
                            x       y       z     vdW  Elec       q    Type
                         _______ _______ _______ _____ _____    ______ ____

>  <TORSDO>
F 9

>  <minimizedAffinity>
-6.6284152355216595

$$$$
ZINC48087940
 OpenBabel10211215103D

 23 23  0  0  0  0  0  0  0  0999 V2000
   50.6790   50.1090   17.8970 N   0  0  0  0  0  0  0  0  0  0  0  0
   50.3600   49.2520   17.5730 H   0  0  0  0  0  0  0  0  0  0  0  0
   50.0610   51.2450   17.5200 C   0  0  0  0  0  0  0  0  0  0  0  0
   50.4610   52.3160   17.9260 O   0  0  0  0  0  0  0  0  0  0  0  0
   51.7830   50.1640   18.7580 N   0  0  0  0  0  0  0  0  0  0  0  0
   52.6640   50.3620   18.4060 H   0  0  0  0  0  0  0  0  0  0  0  0
   51.6200   49.9390   20.0770 C   0  0  0  0  0  0  0  0  0  0  0  0
   50.5550   48.7090   20.6100 S   0  0  0  0  0  0  0  0  0  0  0  0
   52.2950   50.6820   20.9770 N   0  0  0  0  0  0  0  0  0  0  0  0
   52.8200   50.2480   21.6670 H   0  0  0  0  0  0  0  0  0  0  0  0
   52.2360   52.1440   20.9110 C   0  0  0  0  0  0  0  0  0  0  0  0
   51.5180   54.0670   22.3350 C   0  0  0  0  0  0  0  0  0  0  0  0
   51.1580   52.6550   21.8680 C   0  0  0  0  0  0  0  0  0  0  0  0
   48.8740   51.1860   16.5940 C   0  0  0  0  0  0  0  0  0  0  0  0
   49.0180   49.9870   15.6550 C   0  0  0  0  0  0  0  0  0  0  0  0
   48.6690   48.7910   16.3540 O   0  0  0  0  0  0  0  0  0  0  0  0
   47.3460   48.5790   16.5900 C   0  0  0  0  0  0  0  0  0  0  0  0
   46.4890   48.2960   15.5380 C   0  0  0  0  0  0  0  0  0  0  0  0
   45.1460   48.0810   15.7820 C   0  0  0  0  0  0  0  0  0  0  0  0
   44.6540   48.1490   17.0720 C   0  0  0  0  0  0  0  0  0  0  0  0
   45.5060   48.4330   18.1240 C   0  0  0  0  0  0  0  0  0  0  0  0
   46.8530   48.6420   17.8870 C   0  0  0  0  0  0  0  0  0  0  0  0
   47.6860   48.9130   18.9160 F   0  0  0  0  0  0  0  0  0  0  0  0
  1  5  1  0  0  0  0
  2  1  1  0  0  0  0
  3  1  1  0  0  0  0
  3  4  2  0  0  0  0
  5  7  1  0  0  0  0
  6  5  1  0  0  0  0
  7  8  2  0  0  0  0
  7  9  1  0  0  0  0
  9 10  1  0  0  0  0
 11  9  1  0  0  0  0
 11 13  1  0  0  0  0
 13 12  1  0  0  0  0
 14  3  1  0  0  0  0
 15 16  1  0  0  0  0
 15 14  1  0  0  0  0
 16 17  1  0  0  0  0
 17 22  2  0  0  0  0
 18 19  2  0  0  0  0
 18 17  1  0  0  0  0
 19 20  1  0  0  0  0
 20 21  2  0  0  0  0
 22 21  1  0  0  0  0
 22 23  1  0  0  0  0
M  END
>  <MODEL>
8

>  <REMARK>
  Name = ZINC48087940
                            x       y       z     vdW  Elec       q    Type
                         _______ _______ _______ _____ _____    ______ ____

>  <TORSDO>
F 9

>  <minimizedAffinity>
-6.5247550433179393

$$$$
ZINC48087940
 OpenBabel10211215103D

 23 23  0  0  0  0  0  0  0  0999 V2000
   50.9400   49.5000   18.9900 N   0  0  0  0  0  0  0  0  0  0  0  0
   51.4410   49.8260   18.2260 H   0  0  0  0  0  0  0  0  0  0  0  0
   51.2550   49.9170   20.2310 C   0  0  0  0  0  0  0  0  0  0  0  0
   50.6270   49.5110   21.1860 O   0  0  0  0  0  0  0  0  0  0  0  0
   49.8860   48.5960   18.8010 N   0  0  0  0  0  0  0  0  0  0  0  0
   49.8700   47.7610   19.2940 H   0  0  0  0  0  0  0  0  0  0  0  0
   48.8960   48.8860   17.9330 C   0  0  0  0  0  0  0  0  0  0  0  0
   48.7290   47.9780   16.4920 S   0  0  0  0  0  0  0  0  0  0  0  0
   48.0370   49.8900   18.2010 N   0  0  0  0  0  0  0  0  0  0  0  0
   47.7030   50.0130   19.1030 H   0  0  0  0  0  0  0  0  0  0  0  0
   47.6110   50.7940   17.1310 C   0  0  0  0  0  0  0  0  0  0  0  0
   47.7380   53.1870   16.4260 C   0  0  0  0  0  0  0  0  0  0  0  0
   48.4660   52.0620   17.1640 C   0  0  0  0  0  0  0  0  0  0  0  0
   52.3880   50.8900   20.4340 C   0  0  0  0  0  0  0  0  0  0  0  0
   51.9500   52.2860   19.9850 C   0  0  0  0  0  0  0  0  0  0  0  0
   51.6240   53.0740   21.1310 O   0  0  0  0  0  0  0  0  0  0  0  0
   50.8000   54.1380   20.9340 C   0  0  0  0  0  0  0  0  0  0  0  0
   49.7230   54.0300   20.0680 C   0  0  0  0  0  0  0  0  0  0  0  0
   48.8860   55.1120   19.8700 C   0  0  0  0  0  0  0  0  0  0  0  0
   49.1210   56.3020   20.5320 C   0  0  0  0  0  0  0  0  0  0  0  0
   50.1950   56.4140   21.3970 C   0  0  0  0  0  0  0  0  0  0  0  0
   51.0320   55.3320   21.6040 C   0  0  0  0  0  0  0  0  0  0  0  0
   52.0770   55.4390   22.4540 F   0  0  0  0  0  0  0  0  0  0  0  0
  1  3  1  0  0  0  0
  2  1  1  0  0  0  0
  3 14  1  0  0  0  0
  3  4  2  0  0  0  0
  5  1  1  0  0  0  0
  5  6  1  0  0  0  0
  7  9  1  0  0  0  0
  7  5  1  0  0  0  0
  8  7  2  0  0  0  0
  9 10  1  0  0  0  0
 11 13  1  0  0  0  0
 11  9  1  0  0  0  0
 12 13  1  0  0  0  0
 15 14  1  0  0  0  0
 15 16  1  0  0  0  0
 17 16  1  0  0  0  0
 17 22  2  0  0  0  0
 18 17  1  0  0  0  0
 19 18  2  0  0  0  0
 19 20  1  0  0  0  0
 20 21  2  0  0  0  0
 21 22  1  0  0  0  0
 22 23  1  0  0  0  0
M  END
>  <MODEL>
9

>  <REMARK>
  Name = ZINC48087940
                            x       y       z     vdW  Elec       q    Type
                         _______ _______ _______ _____ _____    ______ ____

>  <TORSDO>
F 9

>  <minimizedAffinity>
-6.2457880024069503

$$$$
ZINC04906061
 OpenBabel10211215113D

 24 23  0  0  1  0  0  0  0  0999 V2000
   50.4960   51.0530   19.4880 C   0  0  2  0  0  0  0  0  0  0  0  0
   50.1840   50.2190   17.1800 N   0  0  0  0  0  0  0  0  0  0  0  0
   50.6330   49.4010   17.4460 H   0  0  0  0  0  0  0  0  0  0  0  0
   50.0500   51.2310   18.0600 C   0  0  0  0  0  0  0  0  0  0  0  0
   49.5700   52.2860   17.7010 O   0  0  0  0  0  0  0  0  0  0  0  0
   48.4490   49.4180   15.6530 C   0  0  0  0  0  0  0  0  0  0  0  0
   49.6490   50.3510   15.8230 C   0  0  2  0  0  0  0  0  0  0  0  0
   50.7160   49.9840   14.8250 C   0  0  0  0  0  0  0  0  0  0  0  0
   52.0160   50.0200   15.1820 N   0  0  0  0  0  0  0  0  0  0  0  0
   52.7030   49.7840   14.5400 H   0  0  0  0  0  0  0  0  0  0  0  0
   52.2630   50.2830   16.0830 H   0  0  0  0  0  0  0  0  0  0  0  0
   50.4070   49.6550   13.6990 O   0  0  0  0  0  0  0  0  0  0  0  0
   51.4100   52.1380   19.8520 N   0  0  0  0  0  0  0  0  0  0  0  0
   52.0960   52.4250   19.2280 H   0  0  0  0  0  0  0  0  0  0  0  0
   51.2990   52.7370   21.0550 C   0  0  0  0  0  0  0  0  0  0  0  0
   50.4410   52.3770   21.8350 O   0  0  0  0  0  0  0  0  0  0  0  0
   52.1400   53.7340   21.3900 O   0  0  0  0  0  0  0  0  0  0  0  0
   51.6470   55.0690   21.2550 C   0  0  0  0  0  0  0  0  0  0  0  0
   50.2100   55.0320   20.7300 C   0  0  0  0  0  0  0  0  0  0  0  0
   52.5290   55.8410   20.2710 C   0  0  0  0  0  0  0  0  0  0  0  0
   51.6750   55.7630   22.6180 C   0  0  0  0  0  0  0  0  0  0  0  0
   51.2130   49.7100   19.6350 C   0  0  0  0  0  0  0  0  0  0  0  0
   50.6410   48.9550   20.8370 C   0  0  0  0  0  0  0  0  0  0  0  0
   52.7090   49.9500   19.8500 C   0  0  0  0  0  0  0  0  0  0  0  0
  1  4  1  6  0  0  0
  1 22  1  0  0  0  0
  1 13  1  0  0  0  0
  2  3  1  0  0  0  0
  2  4  1  0  0  0  0
  5  4  2  0  0  0  0
  6  7  1  0  0  0  0
  7  8  1  1  0  0  0
  7  2  1  0  0  0  0
  8  9  1  0  0  0  0
  9 11  1  0  0  0  0
 10  9  1  0  0  0  0
 12  8  2  0  0  0  0
 13 15  1  0  0  0  0
 14 13  1  0  0  0  0
 15 17  1  0  0  0  0
 15 16  2  0  0  0  0
 18 17  1  0  0  0  0
 18 21  1  0  0  0  0
 19 18  1  0  0  0  0
 20 18  1  0  0  0  0
 22 24  1  0  0  0  0
 22 23  1  0  0  0  0
M  END
>  <MODEL>
1

>  <REMARK>
  Name = ZINC04906061
                            x       y       z     vdW  Elec       q    Type
                         _______ _______ _______ _____ _____    ______ ____

>  <TORSDO>
F 7

>  <minimizedAffinity>
-6.8961744285890525

$$$$
ZINC04906061
 OpenBabel10211215113D

 24 23  0  0  1  0  0  0  0  0999 V2000
   50.4610   53.4880   18.6730 C   0  0  2  0  0  0  0  0  0  0  0  0
   49.9810   51.0970   19.0860 N   0  0  0  0  0  0  0  0  0  0  0  0
   49.1850   51.3700   19.5700 H   0  0  0  0  0  0  0  0  0  0  0  0
   50.8170   52.0260   18.5840 C   0  0  0  0  0  0  0  0  0  0  0  0
   51.8560   51.6860   18.0600 O   0  0  0  0  0  0  0  0  0  0  0  0
   48.9590   48.8930   18.8070 C   0  0  0  0  0  0  0  0  0  0  0  0
   50.2710   49.6730   18.9020 C   0  0  2  0  0  0  0  0  0  0  0  0
   51.0730   49.1670   20.0730 C   0  0  0  0  0  0  0  0  0  0  0  0
   52.3920   48.9260   19.9340 N   0  0  0  0  0  0  0  0  0  0  0  0
   52.9080   48.6010   20.6870 H   0  0  0  0  0  0  0  0  0  0  0  0
   52.8250   49.0790   19.0790 H   0  0  0  0  0  0  0  0  0  0  0  0
   50.5320   48.9780   21.1420 O   0  0  0  0  0  0  0  0  0  0  0  0
   51.0300   54.0540   19.8980 N   0  0  0  0  0  0  0  0  0  0  0  0
   50.6460   53.8320   20.7610 H   0  0  0  0  0  0  0  0  0  0  0  0
   52.0890   54.8860   19.8270 C   0  0  0  0  0  0  0  0  0  0  0  0
   52.5720   55.1640   18.7480 O   0  0  0  0  0  0  0  0  0  0  0  0
   52.6120   55.4070   20.9540 O   0  0  0  0  0  0  0  0  0  0  0  0
   52.0700   56.6500   21.4050 C   0  0  0  0  0  0  0  0  0  0  0  0
   53.2100   57.5880   21.8070 C   0  0  0  0  0  0  0  0  0  0  0  0
   51.1640   56.4010   22.6130 C   0  0  0  0  0  0  0  0  0  0  0  0
   51.2550   57.2900   20.2790 C   0  0  0  0  0  0  0  0  0  0  0  0
   48.9400   53.6420   18.6980 C   0  0  0  0  0  0  0  0  0  0  0  0
   48.4240   53.8380   17.2710 C   0  0  0  0  0  0  0  0  0  0  0  0
   48.5640   54.8590   19.5460 C   0  0  0  0  0  0  0  0  0  0  0  0
  1  4  1  1  0  0  0
  1 22  1  0  0  0  0
  1 13  1  0  0  0  0
  2  3  1  0  0  0  0
  4  2  1  0  0  0  0
  5  4  2  0  0  0  0
  7  6  1  1  0  0  0
  7  2  1  0  0  0  0
  7  8  1  0  0  0  0
  8 12  2  0  0  0  0
  9  8  1  0  0  0  0
  9 10  1  0  0  0  0
 11  9  1  0  0  0  0
 13 14  1  0  0  0  0
 15 13  1  0  0  0  0
 15 17  1  0  0  0  0
 16 15  2  0  0  0  0
 17 18  1  0  0  0  0
 18 19  1  0  0  0  0
 18 20  1  0  0  0  0
 21 18  1  0  0  0  0
 22 24  1  0  0  0  0
 23 22  1  0  0  0  0
M  END
>  <MODEL>
2

>  <REMARK>
  Name = ZINC04906061
                            x       y       z     vdW  Elec       q    Type
                         _______ _______ _______ _____ _____    ______ ____

>  <TORSDO>
F 7

>  <minimizedAffinity>
-6.8756248751242843

$$$$
ZINC04906061
 OpenBabel10211215113D

 24 23  0  0  1  0  0  0  0  0999 V2000
   48.5740   49.9720   17.8760 C   0  0  2  0  0  0  0  0  0  0  0  0
   50.2770   50.7600   19.4870 N   0  0  0  0  0  0  0  0  0  0  0  0
   50.1290   51.6610   19.1580 H   0  0  0  0  0  0  0  0  0  0  0  0
   49.6210   49.7230   18.9310 C   0  0  0  0  0  0  0  0  0  0  0  0
   49.8740   48.5890   19.2790 O   0  0  0  0  0  0  0  0  0  0  0  0
   51.3080   51.7880   21.4520 C   0  0  0  0  0  0  0  0  0  0  0  0
   51.2140   50.5290   20.5890 C   0  0  2  0  0  0  0  0  0  0  0  0
   52.5740   50.1990   20.0320 C   0  0  0  0  0  0  0  0  0  0  0  0
   52.9510   48.9120   19.8890 N   0  0  0  0  0  0  0  0  0  0  0  0
   53.8260   48.6990   19.5310 H   0  0  0  0  0  0  0  0  0  0  0  0
   52.3450   48.1990   20.1450 H   0  0  0  0  0  0  0  0  0  0  0  0
   53.3310   51.0900   19.7100 O   0  0  0  0  0  0  0  0  0  0  0  0
   48.1800   48.6980   17.2700 N   0  0  0  0  0  0  0  0  0  0  0  0
   48.7690   48.2580   16.6370 H   0  0  0  0  0  0  0  0  0  0  0  0
   46.9970   48.1370   17.5930 C   0  0  0  0  0  0  0  0  0  0  0  0
   46.2600   48.6860   18.3860 O   0  0  0  0  0  0  0  0  0  0  0  0
   46.6340   46.9650   17.0350 O   0  0  0  0  0  0  0  0  0  0  0  0
   45.7340   47.0270   15.9270 C   0  0  0  0  0  0  0  0  0  0  0  0
   45.4830   45.6140   15.3940 C   0  0  0  0  0  0  0  0  0  0  0  0
   46.3480   47.8870   14.8200 C   0  0  0  0  0  0  0  0  0  0  0  0
   44.4100   47.6450   16.3780 C   0  0  0  0  0  0  0  0  0  0  0  0
   49.1440   50.8950   16.7980 C   0  0  0  0  0  0  0  0  0  0  0  0
   48.0730   51.9000   16.3690 C   0  0  0  0  0  0  0  0  0  0  0  0
   49.5750   50.0630   15.5890 C   0  0  0  0  0  0  0  0  0  0  0  0
  1 22  1  6  0  0  0
  1  4  1  0  0  0  0
  3  2  1  0  0  0  0
  4  5  2  0  0  0  0
  4  2  1  0  0  0  0
  7  2  1  6  0  0  0
  7  6  1  0  0  0  0
  8  7  1  0  0  0  0
  9  8  1  0  0  0  0
  9 11  1  0  0  0  0
 10  9  1  0  0  0  0
 12  8  2  0  0  0  0
 13 15  1  0  0  0  0
 13  1  1  0  0  0  0
 14 13  1  0  0  0  0
 15 16  2  0  0  0  0
 17 15  1  0  0  0  0
 18 21  1  0  0  0  0
 18 17  1  0  0  0  0
 19 18  1  0  0  0  0
 20 18  1  0  0  0  0
 23 22  1  0  0  0  0
 24 22  1  0  0  0  0
M  END
>  <MODEL>
3

>  <REMARK>
  Name = ZINC04906061
                            x       y       z     vdW  Elec       q    Type
                         _______ _______ _______ _____ _____    ______ ____

>  <TORSDO>
F 7

>  <minimizedAffinity>
-6.6837169233690465

$$$$
ZINC04906061
 OpenBabel10211215113D

 24 23  0  0  1  0  0  0  0  0999 V2000
   51.1230   51.7730   19.1560 C   0  0  2  0  0  0  0  0  0  0  0  0
   51.6300   53.9070   20.3010 N   0  0  0  0  0  0  0  0  0  0  0  0
   52.4750   53.5210   20.5820 H   0  0  0  0  0  0  0  0  0  0  0  0
   50.7500   53.1640   19.6000 C   0  0  0  0  0  0  0  0  0  0  0  0
   49.6580   53.6160   19.3290 O   0  0  0  0  0  0  0  0  0  0  0  0
   52.1490   56.2360   19.7660 C   0  0  0  0  0  0  0  0  0  0  0  0
   51.3130   55.2970   20.6370 C   0  0  2  0  0  0  0  0  0  0  0  0
   51.6260   55.5460   22.0890 C   0  0  0  0  0  0  0  0  0  0  0  0
   51.6590   56.8070   22.5650 N   0  0  0  0  0  0  0  0  0  0  0  0
   51.8600   56.9680   23.5000 H   0  0  0  0  0  0  0  0  0  0  0  0
   51.4800   57.5540   21.9720 H   0  0  0  0  0  0  0  0  0  0  0  0
   51.8480   54.6130   22.8320 O   0  0  0  0  0  0  0  0  0  0  0  0
   49.9070   50.9740   18.9870 N   0  0  0  0  0  0  0  0  0  0  0  0
   49.2890   50.8670   19.7270 H   0  0  0  0  0  0  0  0  0  0  0  0
   49.6480   50.3850   17.8020 C   0  0  0  0  0  0  0  0  0  0  0  0
   50.4210   50.5190   16.8750 O   0  0  0  0  0  0  0  0  0  0  0  0
   48.5310   49.6490   17.6470 O   0  0  0  0  0  0  0  0  0  0  0  0
   47.4880   50.2160   16.8510 C   0  0  0  0  0  0  0  0  0  0  0  0
   46.1360   49.6630   17.3110 C   0  0  0  0  0  0  0  0  0  0  0  0
   47.7140   49.8520   15.3820 C   0  0  0  0  0  0  0  0  0  0  0  0
   47.4960   51.7380   17.0070 C   0  0  0  0  0  0  0  0  0  0  0  0
   52.0200   51.1230   20.2110 C   0  0  0  0  0  0  0  0  0  0  0  0
   52.8370   50.0030   19.5640 C   0  0  0  0  0  0  0  0  0  0  0  0
   51.1530   50.5410   21.3290 C   0  0  0  0  0  0  0  0  0  0  0  0
  1 13  1  1  0  0  0
  1  4  1  0  0  0  0
  1 22  1  0  0  0  0
  2  3  1  0  0  0  0
  2  7  1  0  0  0  0
  4  2  1  0  0  0  0
  5  4  2  0  0  0  0
  7  6  1  1  0  0  0
  7  8  1  0  0  0  0
  8  9  1  0  0  0  0
  8 12  2  0  0  0  0
  9 10  1  0  0  0  0
 11  9  1  0  0  0  0
 13 14  1  0  0  0  0
 15 13  1  0  0  0  0
 16 15  2  0  0  0  0
 17 15  1  0  0  0  0
 18 21  1  0  0  0  0
 18 19  1  0  0  0  0
 18 17  1  0  0  0  0
 20 18  1  0  0  0  0
 22 24  1  0  0  0  0
 23 22  1  0  0  0  0
M  END
>  <MODEL>
4

>  <REMARK>
  Name = ZINC04906061
                            x       y       z     vdW  Elec       q    Type
                         _______ _______ _______ _____ _____    ______ ____

>  <TORSDO>
F 7

>  <minimizedAffinity>
-6.3517682080630369

$$$$
ZINC04906061
 OpenBabel10211215113D

 24 23  0  0  1  0  0  0  0  0999 V2000
   51.3740   52.2270   18.8270 C   0  0  2  0  0  0  0  0  0  0  0  0
   49.9890   54.2700   18.9880 N   0  0  0  0  0  0  0  0  0  0  0  0
   49.2020   53.7010   18.9860 H   0  0  0  0  0  0  0  0  0  0  0  0
   51.2150   53.7250   18.8600 C   0  0  0  0  0  0  0  0  0  0  0  0
   52.1890   54.4410   18.7710 O   0  0  0  0  0  0  0  0  0  0  0  0
   49.4910   56.0560   20.5820 C   0  0  0  0  0  0  0  0  0  0  0  0
   49.8420   55.7200   19.1320 C   0  0  2  0  0  0  0  0  0  0  0  0
   48.7430   56.2070   18.2230 C   0  0  0  0  0  0  0  0  0  0  0  0
   48.0670   57.3330   18.5250 N   0  0  0  0  0  0  0  0  0  0  0  0
   47.3600   57.6470   17.9410 H   0  0  0  0  0  0  0  0  0  0  0  0
   48.2880   57.8300   19.3290 H   0  0  0  0  0  0  0  0  0  0  0  0
   48.4670   55.5870   17.2180 O   0  0  0  0  0  0  0  0  0  0  0  0
   50.0530   51.5970   18.7750 N   0  0  0  0  0  0  0  0  0  0  0  0
   49.4190   51.7400   19.4950 H   0  0  0  0  0  0  0  0  0  0  0  0
   49.7200   50.8170   17.7270 C   0  0  0  0  0  0  0  0  0  0  0  0
   50.5150   50.6380   16.8260 O   0  0  0  0  0  0  0  0  0  0  0  0
   48.5050   50.2370   17.6800 O   0  0  0  0  0  0  0  0  0  0  0  0
   48.4110   48.8920   18.1530 C   0  0  0  0  0  0  0  0  0  0  0  0
   48.6890   47.9250   17.0000 C   0  0  0  0  0  0  0  0  0  0  0  0
   47.0040   48.6420   18.7000 C   0  0  0  0  0  0  0  0  0  0  0  0
   49.4370   48.6680   19.2650 C   0  0  0  0  0  0  0  0  0  0  0  0
   52.1120   51.7650   20.0850 C   0  0  0  0  0  0  0  0  0  0  0  0
   52.6950   50.3700   19.8500 C   0  0  0  0  0  0  0  0  0  0  0  0
   51.1340   51.7160   21.2610 C   0  0  0  0  0  0  0  0  0  0  0  0
  1 13  1  1  0  0  0
  1  4  1  0  0  0  0
  1 22  1  0  0  0  0
  2  7  1  0  0  0  0
  3  2  1  0  0  0  0
  4  2  1  0  0  0  0
  5  4  2  0  0  0  0
  7  8  1  1  0  0  0
  7  6  1  0  0  0  0
  8  9  1  0  0  0  0
  9 11  1  0  0  0  0
 10  9  1  0  0  0  0
 12  8  2  0  0  0  0
 13 14  1  0  0  0  0
 15 13  1  0  0  0  0
 16 15  2  0  0  0  0
 17 15  1  0  0  0  0
 17 18  1  0  0  0  0
 18 20  1  0  0  0  0
 18 21  1  0  0  0  0
 19 18  1  0  0  0  0
 22 24  1  0  0  0  0
 23 22  1  0  0  0  0
M  END
>  <MODEL>
5

>  <REMARK>
  Name = ZINC04906061
                            x       y       z     vdW  Elec       q    Type
                         _______ _______ _______ _____ _____    ______ ____

>  <TORSDO>
F 7

>  <minimizedAffinity>
-6.3494549131417601

$$$$
ZINC04906061
 OpenBabel10211215113D

 24 23  0  0  1  0  0  0  0  0999 V2000
   49.6280   52.4340   17.7420 C   0  0  2  0  0  0  0  0  0  0  0  0
   50.3700   50.7620   19.4080 N   0  0  0  0  0  0  0  0  0  0  0  0
   49.6870   51.1000   20.0080 H   0  0  0  0  0  0  0  0  0  0  0  0
   50.5540   51.3380   18.2040 C   0  0  0  0  0  0  0  0  0  0  0  0
   51.4660   50.9750   17.4920 O   0  0  0  0  0  0  0  0  0  0  0  0
   50.4570   48.7990   20.8640 C   0  0  0  0  0  0  0  0  0  0  0  0
   51.1990   49.6230   19.8100 C   0  0  2  0  0  0  0  0  0  0  0  0
   52.4970   50.1260   20.3880 C   0  0  0  0  0  0  0  0  0  0  0  0
   52.4940   50.8450   21.5280 N   0  0  0  0  0  0  0  0  0  0  0  0
   53.3290   51.1690   21.9000 H   0  0  0  0  0  0  0  0  0  0  0  0
   51.6560   51.0390   21.9760 H   0  0  0  0  0  0  0  0  0  0  0  0
   53.5450   49.8820   19.8280 O   0  0  0  0  0  0  0  0  0  0  0  0
   49.3050   53.3070   18.8720 N   0  0  0  0  0  0  0  0  0  0  0  0
   48.4550   53.2140   19.3310 H   0  0  0  0  0  0  0  0  0  0  0  0
   50.1900   54.2420   19.2750 C   0  0  0  0  0  0  0  0  0  0  0  0
   51.2540   54.3570   18.7020 O   0  0  0  0  0  0  0  0  0  0  0  0
   49.8920   55.0450   20.3150 O   0  0  0  0  0  0  0  0  0  0  0  0
   49.6950   56.4310   20.0260 C   0  0  0  0  0  0  0  0  0  0  0  0
   51.0520   57.1320   19.9340 C   0  0  0  0  0  0  0  0  0  0  0  0
   48.8640   57.0700   21.1410 C   0  0  0  0  0  0  0  0  0  0  0  0
   48.9550   56.5740   18.6940 C   0  0  0  0  0  0  0  0  0  0  0  0
   48.3420   51.8160   17.1900 C   0  0  0  0  0  0  0  0  0  0  0  0
   48.6380   51.1320   15.8540 C   0  0  0  0  0  0  0  0  0  0  0  0
   47.2970   52.9140   16.9800 C   0  0  0  0  0  0  0  0  0  0  0  0
  1 22  1  1  0  0  0
  1  4  1  0  0  0  0
  1 13  1  0  0  0  0
  2  3  1  0  0  0  0
  4  2  1  0  0  0  0
  5  4  2  0  0  0  0
  7  2  1  1  0  0  0
  7  8  1  0  0  0  0
  7  6  1  0  0  0  0
  8  9  1  0  0  0  0
  9 10  1  0  0  0  0
  9 11  1  0  0  0  0
 12  8  2  0  0  0  0
 13 15  1  0  0  0  0
 13 14  1  0  0  0  0
 15 17  1  0  0  0  0
 16 15  2  0  0  0  0
 18 17  1  0  0  0  0
 18 20  1  0  0  0  0
 19 18  1  0  0  0  0
 21 18  1  0  0  0  0
 23 22  1  0  0  0  0
 24 22  1  0  0  0  0
M  END
>  <MODEL>
6

>  <REMARK>
  Name = ZINC04906061
                            x       y       z     vdW  Elec       q    Type
                         _______ _______ _______ _____ _____    ______ ____

>  <TORSDO>
F 7

>  <minimizedAffinity>
-6.2744697881529099

$$$$
ZINC04906061
 OpenBabel10211215113D

 24 23  0  0  1  0  0  0  0  0999 V2000
   51.2440   52.5800   19.0190 C   0  0  2  0  0  0  0  0  0  0  0  0
   49.6840   54.4980   18.9230 N   0  0  0  0  0  0  0  0  0  0  0  0
   48.9500   53.8640   18.9210 H   0  0  0  0  0  0  0  0  0  0  0  0
   50.9580   54.0560   18.9160 C   0  0  0  0  0  0  0  0  0  0  0  0
   51.8720   54.8470   18.8260 O   0  0  0  0  0  0  0  0  0  0  0  0
   48.7000   56.3090   20.2390 C   0  0  0  0  0  0  0  0  0  0  0  0
   49.4070   55.9360   18.9350 C   0  0  2  0  0  0  0  0  0  0  0  0
   48.5240   56.2880   17.7660 C   0  0  0  0  0  0  0  0  0  0  0  0
   47.9120   57.4880   17.7200 N   0  0  0  0  0  0  0  0  0  0  0  0
   47.3440   57.7150   16.9680 H   0  0  0  0  0  0  0  0  0  0  0  0
   48.0410   58.1260   18.4400 H   0  0  0  0  0  0  0  0  0  0  0  0
   48.3640   55.4920   16.8650 O   0  0  0  0  0  0  0  0  0  0  0  0
   49.9830   51.8360   18.9910 N   0  0  0  0  0  0  0  0  0  0  0  0
   49.3080   51.9990   19.6680 H   0  0  0  0  0  0  0  0  0  0  0  0
   49.7620   50.9220   18.0250 C   0  0  0  0  0  0  0  0  0  0  0  0
   50.6070   50.7180   17.1770 O   0  0  0  0  0  0  0  0  0  0  0  0
   48.6020   50.2380   18.0000 O   0  0  0  0  0  0  0  0  0  0  0  0
   47.6390   50.6320   17.0210 C   0  0  0  0  0  0  0  0  0  0  0  0
   46.3150   49.9110   17.2870 C   0  0  0  0  0  0  0  0  0  0  0  0
   48.1490   50.2610   15.6260 C   0  0  0  0  0  0  0  0  0  0  0  0
   47.4210   52.1440   17.0980 C   0  0  0  0  0  0  0  0  0  0  0  0
   51.9780   52.2930   20.3300 C   0  0  0  0  0  0  0  0  0  0  0  0
   52.6140   50.9030   20.2650 C   0  0  0  0  0  0  0  0  0  0  0  0
   50.9850   52.3440   21.4930 C   0  0  0  0  0  0  0  0  0  0  0  0
  1  4  1  1  0  0  0
  1 22  1  0  0  0  0
  2  7  1  0  0  0  0
  3  2  1  0  0  0  0
  4  2  1  0  0  0  0
  5  4  2  0  0  0  0
  7  8  1  1  0  0  0
  7  6  1  0  0  0  0
  9  8  1  0  0  0  0
  9 11  1  0  0  0  0
 10  9  1  0  0  0  0
 12  8  2  0  0  0  0
 13  1  1  0  0  0  0
 13 14  1  0  0  0  0
 15 13  1  0  0  0  0
 16 15  2  0  0  0  0
 17 15  1  0  0  0  0
 18 21  1  0  0  0  0
 18 19  1  0  0  0  0
 18 17  1  0  0  0  0
 20 18  1  0  0  0  0
 22 24  1  0  0  0  0
 23 22  1  0  0  0  0
M  END
>  <MODEL>
7

>  <REMARK>
  Name = ZINC04906061
                            x       y       z     vdW  Elec       q    Type
                         _______ _______ _______ _____ _____    ______ ____

>  <TORSDO>
F 7

>  <minimizedAffinity>
-6.212835735326026

$$$$
ZINC04906061
 OpenBabel10211215113D

 24 23  0  0  1  0  0  0  0  0999 V2000
   50.0070   54.8730   18.5360 C   0  0  2  0  0  0  0  0  0  0  0  0
   50.9710   52.5950   18.4990 N   0  0  0  0  0  0  0  0  0  0  0  0
   51.7880   52.9670   18.8670 H   0  0  0  0  0  0  0  0  0  0  0  0
   49.9380   53.4060   18.1980 C   0  0  0  0  0  0  0  0  0  0  0  0
   48.9520   52.9550   17.6550 O   0  0  0  0  0  0  0  0  0  0  0  0
   50.4110   50.4660   19.5650 C   0  0  0  0  0  0  0  0  0  0  0  0
   50.8610   51.1520   18.2740 C   0  0  2  0  0  0  0  0  0  0  0  0
   52.2010   50.6050   17.8550 C   0  0  0  0  0  0  0  0  0  0  0  0
   52.5390   50.5730   16.5500 N   0  0  0  0  0  0  0  0  0  0  0  0
   53.4010   50.2210   16.2800 H   0  0  0  0  0  0  0  0  0  0  0  0
   51.9180   50.9030   15.8810 H   0  0  0  0  0  0  0  0  0  0  0  0
   52.9780   50.1940   18.6910 O   0  0  0  0  0  0  0  0  0  0  0  0
   50.8300   55.0590   19.7340 N   0  0  0  0  0  0  0  0  0  0  0  0
   50.5320   54.7060   20.5870 H   0  0  0  0  0  0  0  0  0  0  0  0
   52.0010   55.7220   19.6500 C   0  0  0  0  0  0  0  0  0  0  0  0
   52.3740   56.1630   18.5810 O   0  0  0  0  0  0  0  0  0  0  0  0
   52.7570   55.8930   20.7510 O   0  0  0  0  0  0  0  0  0  0  0  0
   52.3220   56.8810   21.6880 C   0  0  0  0  0  0  0  0  0  0  0  0
   51.3320   57.8290   21.0070 C   0  0  0  0  0  0  0  0  0  0  0  0
   53.5300   57.6770   22.1860 C   0  0  0  0  0  0  0  0  0  0  0  0
   51.6400   56.1950   22.8730 C   0  0  0  0  0  0  0  0  0  0  0  0
   48.5960   55.4040   18.7980 C   0  0  0  0  0  0  0  0  0  0  0  0
   48.3550   56.6510   17.9450 C   0  0  0  0  0  0  0  0  0  0  0  0
   48.4530   55.7630   20.2780 C   0  0  0  0  0  0  0  0  0  0  0  0
  1  4  1  1  0  0  0
  1 22  1  0  0  0  0
  1 13  1  0  0  0  0
  2  3  1  0  0  0  0
  4  2  1  0  0  0  0
  5  4  2  0  0  0  0
  7  8  1  1  0  0  0
  7  2  1  0  0  0  0
  7  6  1  0  0  0  0
  8 12  2  0  0  0  0
  9  8  1  0  0  0  0
 10  9  1  0  0  0  0
 11  9  1  0  0  0  0
 13 14  1  0  0  0  0
 15 13  1  0  0  0  0
 15 17  1  0  0  0  0
 16 15  2  0  0  0  0
 17 18  1  0  0  0  0
 18 20  1  0  0  0  0
 18 21  1  0  0  0  0
 19 18  1  0  0  0  0
 22 24  1  0  0  0  0
 23 22  1  0  0  0  0
M  END
>  <MODEL>
8

>  <REMARK>
  Name = ZINC04906061
                            x       y       z     vdW  Elec       q    Type
                         _______ _______ _______ _____ _____    ______ ____

>  <TORSDO>
F 7

>  <minimizedAffinity>
-6.0763629909932675

$$$$
ZINC04906061
 OpenBabel10211215113D

 24 23  0  0  1  0  0  0  0  0999 V2000
   50.0770   54.2480   19.3210 C   0  0  2  0  0  0  0  0  0  0  0  0
   50.7210   51.9020   19.7740 N   0  0  0  0  0  0  0  0  0  0  0  0
   50.6910   51.7400   18.8180 H   0  0  0  0  0  0  0  0  0  0  0  0
   50.3870   53.1130   20.2640 C   0  0  0  0  0  0  0  0  0  0  0  0
   50.3370   53.2890   21.4620 O   0  0  0  0  0  0  0  0  0  0  0  0
   52.4970   51.1660   21.2860 C   0  0  0  0  0  0  0  0  0  0  0  0
   51.1300   50.8310   20.6850 C   0  0  2  0  0  0  0  0  0  0  0  0
   51.2200   49.5320   19.9260 C   0  0  0  0  0  0  0  0  0  0  0  0
   52.3720   48.8330   19.9190 N   0  0  0  0  0  0  0  0  0  0  0  0
   52.4310   47.9970   19.4310 H   0  0  0  0  0  0  0  0  0  0  0  0
   53.1440   49.1660   20.4040 H   0  0  0  0  0  0  0  0  0  0  0  0
   50.2550   49.1150   19.3210 O   0  0  0  0  0  0  0  0  0  0  0  0
   50.3410   55.5230   19.9910 N   0  0  0  0  0  0  0  0  0  0  0  0
   49.7790   55.8110   20.7270 H   0  0  0  0  0  0  0  0  0  0  0  0
   51.3660   56.2980   19.5820 C   0  0  0  0  0  0  0  0  0  0  0  0
   52.0710   55.9380   18.6620 O   0  0  0  0  0  0  0  0  0  0  0  0
   51.6090   57.4710   20.1980 O   0  0  0  0  0  0  0  0  0  0  0  0
   52.6380   57.4810   21.1900 C   0  0  0  0  0  0  0  0  0  0  0  0
   52.6760   58.8510   21.8720 C   0  0  0  0  0  0  0  0  0  0  0  0
   53.9880   57.2050   20.5250 C   0  0  0  0  0  0  0  0  0  0  0  0
   52.3530   56.3990   22.2330 C   0  0  0  0  0  0  0  0  0  0  0  0
   48.6050   54.1810   18.9100 C   0  0  0  0  0  0  0  0  0  0  0  0
   48.4910   54.3600   17.3950 C   0  0  0  0  0  0  0  0  0  0  0  0
   47.8280   55.2960   19.6140 C   0  0  0  0  0  0  0  0  0  0  0  0
  1 22  1  1  0  0  0
  1 13  1  0  0  0  0
  1  4  1  0  0  0  0
  2  4  1  0  0  0  0
  3  2  1  0  0  0  0
  4  5  2  0  0  0  0
  7  2  1  6  0  0  0
  7  6  1  0  0  0  0
  8  7  1  0  0  0  0
  9  8  1  0  0  0  0
  9 11  1  0  0  0  0
 10  9  1  0  0  0  0
 12  8  2  0  0  0  0
 13 14  1  0  0  0  0
 15 13  1  0  0  0  0
 15 17  1  0  0  0  0
 16 15  2  0  0  0  0
 17 18  1  0  0  0  0
 18 19  1  0  0  0  0
 18 21  1  0  0  0  0
 20 18  1  0  0  0  0
 22 24  1  0  0  0  0
 23 22  1  0  0  0  0
M  END
>  <MODEL>
9

>  <REMARK>
  Name = ZINC04906061
                            x       y       z     vdW  Elec       q    Type
                         _______ _______ _______ _____ _____    ______ ____

>  <TORSDO>
F 7

>  <minimizedAffinity>
-6.0246782465305699

$$$$
ZINC64900758
 OpenBabel10211215123D

 28 30  0  0  0  0  0  0  0  0999 V2000
   48.2000   50.2140   18.0870 C   0  0  0  0  0  0  0  0  0  0  0  0
   48.5280   49.0480   18.7690 C   0  0  0  0  0  0  0  0  0  0  0  0
   49.7800   48.9040   19.3290 C   0  0  0  0  0  0  0  0  0  0  0  0
   50.7190   49.9160   19.2180 C   0  0  0  0  0  0  0  0  0  0  0  0
   50.4140   51.0790   18.5450 C   0  0  0  0  0  0  0  0  0  0  0  0
   49.1510   51.2390   17.9680 C   0  0  0  0  0  0  0  0  0  0  0  0
   48.8200   52.4790   17.2420 C   0  0  0  0  0  0  0  0  0  0  0  0
   48.7890   53.6560   17.8980 N   0  0  0  0  0  0  0  0  0  0  0  0
   48.9850   53.6870   18.8470 H   0  0  0  0  0  0  0  0  0  0  0  0
   48.5740   52.4390   16.0520 O   0  0  0  0  0  0  0  0  0  0  0  0
   48.4730   54.8340   17.2080 N   0  0  0  0  0  0  0  0  0  0  0  0
   48.2180   54.7950   16.2740 H   0  0  0  0  0  0  0  0  0  0  0  0
   48.5270   56.0210   17.8430 C   0  0  0  0  0  0  0  0  0  0  0  0
   48.8830   56.0750   19.1420 N   0  0  0  0  0  0  0  0  0  0  0  0
   49.1010   55.2610   19.6190 H   0  0  0  0  0  0  0  0  0  0  0  0
   48.2520   57.0440   17.2440 O   0  0  0  0  0  0  0  0  0  0  0  0
   48.9400   57.3670   19.8320 C   0  0  0  0  0  0  0  0  0  0  0  0
   49.0490   57.3480   21.3580 C   0  0  0  0  0  0  0  0  0  0  0  0
   47.7370   57.7640   20.6900 C   0  0  0  0  0  0  0  0  0  0  0  0
   46.9400   50.3620   17.5220 N   0  0  0  0  0  0  0  0  0  0  0  0
   46.3710   51.1000   17.7910 H   0  0  0  0  0  0  0  0  0  0  0  0
   45.1220   46.6530   13.6360 C   0  0  0  0  0  0  0  0  0  0  0  0
   45.6050   47.6380   14.6680 C   0  0  0  0  0  0  0  0  0  0  0  0
   46.8050   48.3000   14.4810 C   0  0  0  0  0  0  0  0  0  0  0  0
   47.2500   49.2050   15.4250 C   0  0  0  0  0  0  0  0  0  0  0  0
   46.4920   49.4480   16.5640 C   0  0  0  0  0  0  0  0  0  0  0  0
   45.2890   48.7810   16.7490 C   0  0  0  0  0  0  0  0  0  0  0  0
   44.8460   47.8830   15.7980 C   0  0  0  0  0  0  0  0  0  0  0  0
  1  2  1  0  0  0  0
  2  3  2  0  0  0  0
  4  3  1  0  0  0  0
  5  4  2  0  0  0  0
  6  1  2  0  0  0  0
  6  5  1  0  0  0  0
  7  8  1  0  0  0  0
  7  6  1  0  0  0  0
  8  9  1  0  0  0  0
 10  7  2  0  0  0  0
 11 13  1  0  0  0  0
 11  8  1  0  0  0  0
 12 11  1  0  0  0  0
 13 14  1  0  0  0  0
 14 15  1  0  0  0  0
 14 17  1  0  0  0  0
 16 13  2  0  0  0  0
 17 19  1  0  0  0  0
 17 18  1  0  0  0  0
 19 18  1  0  0  0  0
 20 21  1  0  0  0  0
 20  1  1  0  0  0  0
 22 23  1  0  0  0  0
 23 28  1  0  0  0  0
 24 23  2  0  0  0  0
 24 25  1  0  0  0  0
 25 26  2  0  0  0  0
 26 27  1  0  0  0  0
 26 20  1  0  0  0  0
 28 27  2  0  0  0  0
M  END
>  <MODEL>
1

>  <REMARK>
  Name = ZINC64900758
                            x       y       z     vdW  Elec       q    Type
                         _______ _______ _______ _____ _____    ______ ____

>  <TORSDO>
F 5

>  <minimizedAffinity>
-8.5553374773032811

$$$$
ZINC64900758
 OpenBabel10211215123D

 28 30  0  0  0  0  0  0  0  0999 V2000
   47.4490   50.1840   17.0850 C   0  0  0  0  0  0  0  0  0  0  0  0
   46.0680   50.1530   16.9330 C   0  0  0  0  0  0  0  0  0  0  0  0
   45.3150   49.2420   17.6440 C   0  0  0  0  0  0  0  0  0  0  0  0
   45.9260   48.3510   18.5120 C   0  0  0  0  0  0  0  0  0  0  0  0
   47.2940   48.3660   18.6750 C   0  0  0  0  0  0  0  0  0  0  0  0
   48.0720   49.2800   17.9600 C   0  0  0  0  0  0  0  0  0  0  0  0
   49.5360   49.2970   18.1260 C   0  0  0  0  0  0  0  0  0  0  0  0
   50.0810   49.0260   19.3280 N   0  0  0  0  0  0  0  0  0  0  0  0
   49.5100   48.8190   20.0840 H   0  0  0  0  0  0  0  0  0  0  0  0
   50.2530   49.5570   17.1780 O   0  0  0  0  0  0  0  0  0  0  0  0
   51.4740   49.0430   19.4860 N   0  0  0  0  0  0  0  0  0  0  0  0
   52.0130   48.3280   19.1130 H   0  0  0  0  0  0  0  0  0  0  0  0
   52.0630   50.0520   20.1570 C   0  0  0  0  0  0  0  0  0  0  0  0
   51.3130   51.0450   20.6760 N   0  0  0  0  0  0  0  0  0  0  0  0
   50.3500   51.0340   20.5660 H   0  0  0  0  0  0  0  0  0  0  0  0
   53.2710   50.0670   20.2940 O   0  0  0  0  0  0  0  0  0  0  0  0
   51.9540   52.1420   21.4060 C   0  0  0  0  0  0  0  0  0  0  0  0
   51.0440   53.1900   22.0480 C   0  0  0  0  0  0  0  0  0  0  0  0
   51.8570   53.5440   20.8010 C   0  0  0  0  0  0  0  0  0  0  0  0
   48.2090   51.1000   16.3710 N   0  0  0  0  0  0  0  0  0  0  0  0
   48.6740   50.8220   15.5660 H   0  0  0  0  0  0  0  0  0  0  0  0
   48.6000   56.4700   18.1540 C   0  0  0  0  0  0  0  0  0  0  0  0
   48.4960   55.0440   17.6800 C   0  0  0  0  0  0  0  0  0  0  0  0
   49.1250   54.0340   18.3870 C   0  0  0  0  0  0  0  0  0  0  0  0
   49.0320   52.7260   17.9560 C   0  0  0  0  0  0  0  0  0  0  0  0
   48.3050   52.4230   16.8100 C   0  0  0  0  0  0  0  0  0  0  0  0
   47.6760   53.4390   16.1030 C   0  0  0  0  0  0  0  0  0  0  0  0
   47.7680   54.7450   16.5430 C   0  0  0  0  0  0  0  0  0  0  0  0
  1  6  1  0  0  0  0
  2  1  2  0  0  0  0
  2  3  1  0  0  0  0
  3  4  2  0  0  0  0
  4  5  1  0  0  0  0
  6  7  1  0  0  0  0
  6  5  2  0  0  0  0
  7  8  1  0  0  0  0
  8 11  1  0  0  0  0
  8  9  1  0  0  0  0
 10  7  2  0  0  0  0
 11 13  1  0  0  0  0
 12 11  1  0  0  0  0
 13 16  2  0  0  0  0
 13 14  1  0  0  0  0
 14 17  1  0  0  0  0
 15 14  1  0  0  0  0
 17 18  1  0  0  0  0
 19 17  1  0  0  0  0
 19 18  1  0  0  0  0
 20 26  1  0  0  0  0
 20  1  1  0  0  0  0
 21 20  1  0  0  0  0
 23 22  1  0  0  0  0
 23 24  2  0  0  0  0
 25 24  1  0  0  0  0
 26 25  2  0  0  0  0
 27 28  2  0  0  0  0
 27 26  1  0  0  0  0
 28 23  1  0  0  0  0
M  END
>  <MODEL>
2

>  <REMARK>
  Name = ZINC64900758
                            x       y       z     vdW  Elec       q    Type
                         _______ _______ _______ _____ _____    ______ ____

>  <TORSDO>
F 5

>  <minimizedAffinity>
-8.5232211665029105

$$$$
ZINC64900758
 OpenBabel10211215123D

 28 30  0  0  0  0  0  0  0  0999 V2000
   50.9360   52.5540   19.6070 C   0  0  0  0  0  0  0  0  0  0  0  0
   51.3480   52.4960   20.9330 C   0  0  0  0  0  0  0  0  0  0  0  0
   51.3700   51.2870   21.5980 C   0  0  0  0  0  0  0  0  0  0  0  0
   50.9810   50.1240   20.9530 C   0  0  0  0  0  0  0  0  0  0  0  0
   50.5690   50.1610   19.6390 C   0  0  0  0  0  0  0  0  0  0  0  0
   50.5370   51.3780   18.9520 C   0  0  0  0  0  0  0  0  0  0  0  0
   50.0920   51.4250   17.5480 C   0  0  0  0  0  0  0  0  0  0  0  0
   50.5600   50.5240   16.6620 N   0  0  0  0  0  0  0  0  0  0  0  0
   51.1900   49.8460   16.9480 H   0  0  0  0  0  0  0  0  0  0  0  0
   49.3010   52.2770   17.1890 O   0  0  0  0  0  0  0  0  0  0  0  0
   50.1370   50.5700   15.3260 N   0  0  0  0  0  0  0  0  0  0  0  0
   50.5540   51.1890   14.7070 H   0  0  0  0  0  0  0  0  0  0  0  0
   49.1510   49.7560   14.9040 C   0  0  0  0  0  0  0  0  0  0  0  0
   48.5710   48.8960   15.7650 N   0  0  0  0  0  0  0  0  0  0  0  0
   48.8630   48.8640   16.6890 H   0  0  0  0  0  0  0  0  0  0  0  0
   48.7840   49.7960   13.7450 O   0  0  0  0  0  0  0  0  0  0  0  0
   47.4970   48.0110   15.3060 C   0  0  0  0  0  0  0  0  0  0  0  0
   46.0630   48.3870   15.6780 C   0  0  0  0  0  0  0  0  0  0  0  0
   46.7460   47.2030   16.3650 C   0  0  0  0  0  0  0  0  0  0  0  0
   50.9130   53.7680   18.9360 N   0  0  0  0  0  0  0  0  0  0  0  0
   51.3720   53.8620   18.0860 H   0  0  0  0  0  0  0  0  0  0  0  0
   48.1320   58.1850   21.1560 C   0  0  0  0  0  0  0  0  0  0  0  0
   48.8710   57.0120   20.5660 C   0  0  0  0  0  0  0  0  0  0  0  0
   48.1650   55.9330   20.0650 C   0  0  0  0  0  0  0  0  0  0  0  0
   48.8380   54.8560   19.5230 C   0  0  0  0  0  0  0  0  0  0  0  0
   50.2280   54.8570   19.4820 C   0  0  0  0  0  0  0  0  0  0  0  0
   50.9340   55.9410   19.9870 C   0  0  0  0  0  0  0  0  0  0  0  0
   50.2530   57.0170   20.5220 C   0  0  0  0  0  0  0  0  0  0  0  0
  1  2  1  0  0  0  0
  2  3  2  0  0  0  0
  4  3  1  0  0  0  0
  5  4  2  0  0  0  0
  6  1  2  0  0  0  0
  6  5  1  0  0  0  0
  7  6  1  0  0  0  0
  8  9  1  0  0  0  0
  8  7  1  0  0  0  0
 10  7  2  0  0  0  0
 11  8  1  0  0  0  0
 12 11  1  0  0  0  0
 13 11  1  0  0  0  0
 13 14  1  0  0  0  0
 14 15  1  0  0  0  0
 16 13  2  0  0  0  0
 17 18  1  0  0  0  0
 17 14  1  0  0  0  0
 17 19  1  0  0  0  0
 18 19  1  0  0  0  0
 20 26  1  0  0  0  0
 20  1  1  0  0  0  0
 21 20  1  0  0  0  0
 23 22  1  0  0  0  0
 24 23  2  0  0  0  0
 25 24  1  0  0  0  0
 26 25  2  0  0  0  0
 26 27  1  0  0  0  0
 27 28  2  0  0  0  0
 28 23  1  0  0  0  0
M  END
>  <MODEL>
3

>  <REMARK>
  Name = ZINC64900758
                            x       y       z     vdW  Elec       q    Type
                         _______ _______ _______ _____ _____    ______ ____

>  <TORSDO>
F 5

>  <minimizedAffinity>
-8.4948664101513227

$$$$
ZINC64900758
 OpenBabel10211215123D

 28 30  0  0  0  0  0  0  0  0999 V2000
   48.2410   49.5080   17.9300 C   0  0  0  0  0  0  0  0  0  0  0  0
   47.8450   48.3870   18.6500 C   0  0  0  0  0  0  0  0  0  0  0  0
   46.5160   48.0160   18.6750 C   0  0  0  0  0  0  0  0  0  0  0  0
   45.5680   48.7550   17.9880 C   0  0  0  0  0  0  0  0  0  0  0  0
   45.9400   49.8700   17.2690 C   0  0  0  0  0  0  0  0  0  0  0  0
   47.2820   50.2620   17.2360 C   0  0  0  0  0  0  0  0  0  0  0  0
   47.6860   51.4570   16.4740 C   0  0  0  0  0  0  0  0  0  0  0  0
   47.3090   52.6820   16.8900 N   0  0  0  0  0  0  0  0  0  0  0  0
   46.7710   52.7770   17.6900 H   0  0  0  0  0  0  0  0  0  0  0  0
   48.3610   51.3370   15.4690 O   0  0  0  0  0  0  0  0  0  0  0  0
   47.6930   53.8170   16.1640 N   0  0  0  0  0  0  0  0  0  0  0  0
   47.6130   53.8260   15.1980 H   0  0  0  0  0  0  0  0  0  0  0  0
   48.1770   54.8970   16.8090 C   0  0  0  0  0  0  0  0  0  0  0  0
   48.2900   54.8850   18.1520 N   0  0  0  0  0  0  0  0  0  0  0  0
   48.0230   54.1010   18.6540 H   0  0  0  0  0  0  0  0  0  0  0  0
   48.5100   55.8830   16.1790 O   0  0  0  0  0  0  0  0  0  0  0  0
   48.8150   56.0600   18.8530 C   0  0  0  0  0  0  0  0  0  0  0  0
   49.1670   55.9000   20.3330 C   0  0  0  0  0  0  0  0  0  0  0  0
   47.9280   56.6990   19.9230 C   0  0  0  0  0  0  0  0  0  0  0  0
   49.5770   49.8840   17.9020 N   0  0  0  0  0  0  0  0  0  0  0  0
   50.1430   49.6120   17.1620 H   0  0  0  0  0  0  0  0  0  0  0  0
   51.7350   53.0100   22.1140 C   0  0  0  0  0  0  0  0  0  0  0  0
   51.1620   52.1800   20.9950 C   0  0  0  0  0  0  0  0  0  0  0  0
   51.1150   50.8020   21.1130 C   0  0  0  0  0  0  0  0  0  0  0  0
   50.5890   50.0380   20.0890 C   0  0  0  0  0  0  0  0  0  0  0  0
   50.1080   50.6540   18.9400 C   0  0  0  0  0  0  0  0  0  0  0  0
   50.1580   52.0370   18.8250 C   0  0  0  0  0  0  0  0  0  0  0  0
   50.6790   52.7960   19.8550 C   0  0  0  0  0  0  0  0  0  0  0  0
  1  2  2  0  0  0  0
  2  3  1  0  0  0  0
  4  3  2  0  0  0  0
  5  4  1  0  0  0  0
  6  5  2  0  0  0  0
  6  1  1  0  0  0  0
  7  8  1  0  0  0  0
  7  6  1  0  0  0  0
  8  9  1  0  0  0  0
 10  7  2  0  0  0  0
 11 13  1  0  0  0  0
 11  8  1  0  0  0  0
 12 11  1  0  0  0  0
 13 14  1  0  0  0  0
 14 15  1  0  0  0  0
 14 17  1  0  0  0  0
 16 13  2  0  0  0  0
 17 19  1  0  0  0  0
 17 18  1  0  0  0  0
 19 18  1  0  0  0  0
 20  1  1  0  0  0  0
 20 26  1  0  0  0  0
 21 20  1  0  0  0  0
 23 24  1  0  0  0  0
 23 22  1  0  0  0  0
 25 24  2  0  0  0  0
 26 25  1  0  0  0  0
 27 26  2  0  0  0  0
 27 28  1  0  0  0  0
 28 23  2  0  0  0  0
M  END
>  <MODEL>
4

>  <REMARK>
  Name = ZINC64900758
                            x       y       z     vdW  Elec       q    Type
                         _______ _______ _______ _____ _____    ______ ____

>  <TORSDO>
F 5

>  <minimizedAffinity>
-8.4589877778560538

$$$$
ZINC64900758
 OpenBabel10211215123D

 28 30  0  0  0  0  0  0  0  0999 V2000
   50.2270   56.5990   20.0190 C   0  0  0  0  0  0  0  0  0  0  0  0
   50.4140   57.2970   21.2060 C   0  0  0  0  0  0  0  0  0  0  0  0
   49.3480   57.9290   21.8130 C   0  0  0  0  0  0  0  0  0  0  0  0
   48.0860   57.8760   21.2450 C   0  0  0  0  0  0  0  0  0  0  0  0
   47.8790   57.1900   20.0690 C   0  0  0  0  0  0  0  0  0  0  0  0
   48.9500   56.5470   19.4390 C   0  0  0  0  0  0  0  0  0  0  0  0
   48.7370   55.8160   18.1770 C   0  0  0  0  0  0  0  0  0  0  0  0
   48.5090   54.4890   18.1980 N   0  0  0  0  0  0  0  0  0  0  0  0
   48.4850   54.0140   19.0420 H   0  0  0  0  0  0  0  0  0  0  0  0
   48.7670   56.4120   17.1170 O   0  0  0  0  0  0  0  0  0  0  0  0
   48.3070   53.7930   16.9970 N   0  0  0  0  0  0  0  0  0  0  0  0
   47.9450   54.2540   16.2250 H   0  0  0  0  0  0  0  0  0  0  0  0
   48.6150   52.4840   16.9170 C   0  0  0  0  0  0  0  0  0  0  0  0
   49.1170   51.8430   17.9920 N   0  0  0  0  0  0  0  0  0  0  0  0
   49.2580   52.3230   18.8210 H   0  0  0  0  0  0  0  0  0  0  0  0
   48.4400   51.8810   15.8760 O   0  0  0  0  0  0  0  0  0  0  0  0
   49.4520   50.4190   17.9040 C   0  0  0  0  0  0  0  0  0  0  0  0
   48.3680   49.4130   18.2950 C   0  0  0  0  0  0  0  0  0  0  0  0
   49.5690   49.6390   19.2150 C   0  0  0  0  0  0  0  0  0  0  0  0
   51.2980   55.9620   19.4070 N   0  0  0  0  0  0  0  0  0  0  0  0
   51.8280   56.4330   18.7450 H   0  0  0  0  0  0  0  0  0  0  0  0
   52.5720   50.6070   20.7720 C   0  0  0  0  0  0  0  0  0  0  0  0
   52.2340   52.0290   20.4090 C   0  0  0  0  0  0  0  0  0  0  0  0
   51.6400   52.8570   21.3450 C   0  0  0  0  0  0  0  0  0  0  0  0
   51.3280   54.1620   21.0160 C   0  0  0  0  0  0  0  0  0  0  0  0
   51.6120   54.6430   19.7430 C   0  0  0  0  0  0  0  0  0  0  0  0
   52.2080   53.8090   18.8060 C   0  0  0  0  0  0  0  0  0  0  0  0
   52.5220   52.5070   19.1440 C   0  0  0  0  0  0  0  0  0  0  0  0
  1  2  1  0  0  0  0
  2  3  2  0  0  0  0
  4  3  1  0  0  0  0
  5  4  2  0  0  0  0
  6  1  2  0  0  0  0
  6  5  1  0  0  0  0
  7  8  1  0  0  0  0
  7  6  1  0  0  0  0
  8  9  1  0  0  0  0
 10  7  2  0  0  0  0
 11  8  1  0  0  0  0
 12 11  1  0  0  0  0
 13 11  1  0  0  0  0
 13 14  1  0  0  0  0
 14 15  1  0  0  0  0
 16 13  2  0  0  0  0
 17 14  1  0  0  0  0
 17 18  1  0  0  0  0
 17 19  1  0  0  0  0
 18 19  1  0  0  0  0
 20 26  1  0  0  0  0
 20  1  1  0  0  0  0
 21 20  1  0  0  0  0
 23 22  1  0  0  0  0
 23 24  2  0  0  0  0
 25 24  1  0  0  0  0
 26 25  2  0  0  0  0
 27 28  2  0  0  0  0
 27 26  1  0  0  0  0
 28 23  1  0  0  0  0
M  END
>  <MODEL>
5

>  <REMARK>
  Name = ZINC64900758
                            x       y       z     vdW  Elec       q    Type
                         _______ _______ _______ _____ _____    ______ ____

>  <TORSDO>
F 5

>  <minimizedAffinity>
-8.4485105693381168

$$$$
ZINC64900758
 OpenBabel10211215123D

 28 30  0  0  0  0  0  0  0  0999 V2000
   50.4270   52.6960   19.1880 C   0  0  0  0  0  0  0  0  0  0  0  0
   49.7780   53.5100   20.1090 C   0  0  0  0  0  0  0  0  0  0  0  0
   50.3790   53.8040   21.3160 C   0  0  0  0  0  0  0  0  0  0  0  0
   51.6300   53.2930   21.6200 C   0  0  0  0  0  0  0  0  0  0  0  0
   52.2900   52.4840   20.7210 C   0  0  0  0  0  0  0  0  0  0  0  0
   51.6930   52.1730   19.4960 C   0  0  0  0  0  0  0  0  0  0  0  0
   52.3910   51.3030   18.5310 C   0  0  0  0  0  0  0  0  0  0  0  0
   52.5730   51.7160   17.2620 N   0  0  0  0  0  0  0  0  0  0  0  0
   52.2440   52.5840   16.9820 H   0  0  0  0  0  0  0  0  0  0  0  0
   52.8020   50.2140   18.8820 O   0  0  0  0  0  0  0  0  0  0  0  0
   53.2360   50.8890   16.3440 N   0  0  0  0  0  0  0  0  0  0  0  0
   54.2040   50.8430   16.3450 H   0  0  0  0  0  0  0  0  0  0  0  0
   52.5270   50.1600   15.4600 C   0  0  0  0  0  0  0  0  0  0  0  0
   51.1800   50.2250   15.4590 N   0  0  0  0  0  0  0  0  0  0  0  0
   50.7220   50.7960   16.0930 H   0  0  0  0  0  0  0  0  0  0  0  0
   53.1020   49.4420   14.6640 O   0  0  0  0  0  0  0  0  0  0  0  0
   50.4100   49.4310   14.4970 C   0  0  0  0  0  0  0  0  0  0  0  0
   48.9530   49.8310   14.2580 C   0  0  0  0  0  0  0  0  0  0  0  0
   49.2780   48.5610   15.0460 C   0  0  0  0  0  0  0  0  0  0  0  0
   49.8250   52.3980   17.9740 N   0  0  0  0  0  0  0  0  0  0  0  0
   50.0860   52.8770   17.1720 H   0  0  0  0  0  0  0  0  0  0  0  0
   45.8360   48.3760   17.6950 C   0  0  0  0  0  0  0  0  0  0  0  0
   46.8960   49.4440   17.7690 C   0  0  0  0  0  0  0  0  0  0  0  0
   46.6840   50.6690   17.1620 C   0  0  0  0  0  0  0  0  0  0  0  0
   47.6530   51.6510   17.2280 C   0  0  0  0  0  0  0  0  0  0  0  0
   48.8420   51.4070   17.9050 C   0  0  0  0  0  0  0  0  0  0  0  0
   49.0510   50.1760   18.5130 C   0  0  0  0  0  0  0  0  0  0  0  0
   48.0750   49.2010   18.4480 C   0  0  0  0  0  0  0  0  0  0  0  0
  1  6  2  0  0  0  0
  1  2  1  0  0  0  0
  2  3  2  0  0  0  0
  3  4  1  0  0  0  0
  5  4  2  0  0  0  0
  6  5  1  0  0  0  0
  7 10  2  0  0  0  0
  7  6  1  0  0  0  0
  8  7  1  0  0  0  0
  9  8  1  0  0  0  0
 11 12  1  0  0  0  0
 11  8  1  0  0  0  0
 13 11  1  0  0  0  0
 14 13  1  0  0  0  0
 14 15  1  0  0  0  0
 16 13  2  0  0  0  0
 17 19  1  0  0  0  0
 17 14  1  0  0  0  0
 18 17  1  0  0  0  0
 18 19  1  0  0  0  0
 20  1  1  0  0  0  0
 21 20  1  0  0  0  0
 22 23  1  0  0  0  0
 23 28  2  0  0  0  0
 24 25  2  0  0  0  0
 24 23  1  0  0  0  0
 25 26  1  0  0  0  0
 26 20  1  0  0  0  0
 26 27  2  0  0  0  0
 28 27  1  0  0  0  0
M  END
>  <MODEL>
6

>  <REMARK>
  Name = ZINC64900758
                            x       y       z     vdW  Elec       q    Type
                         _______ _______ _______ _____ _____    ______ ____

>  <TORSDO>
F 5

>  <minimizedAffinity>
-8.2673347508113864

$$$$
ZINC64900758
 OpenBabel10211215123D

 28 30  0  0  0  0  0  0  0  0999 V2000
   49.8870   55.2070   20.3540 C   0  0  0  0  0  0  0  0  0  0  0  0
   49.1710   56.3320   20.7450 C   0  0  0  0  0  0  0  0  0  0  0  0
   49.7100   57.2100   21.6620 C   0  0  0  0  0  0  0  0  0  0  0  0
   50.9650   56.9780   22.2020 C   0  0  0  0  0  0  0  0  0  0  0  0
   51.6900   55.8680   21.8280 C   0  0  0  0  0  0  0  0  0  0  0  0
   51.1560   54.9670   20.9020 C   0  0  0  0  0  0  0  0  0  0  0  0
   51.9250   53.7740   20.5010 C   0  0  0  0  0  0  0  0  0  0  0  0
   51.9680   52.6970   21.3100 N   0  0  0  0  0  0  0  0  0  0  0  0
   51.4950   52.7070   22.1560 H   0  0  0  0  0  0  0  0  0  0  0  0
   52.5200   53.7630   19.4400 O   0  0  0  0  0  0  0  0  0  0  0  0
   52.6990   51.5640   20.9290 N   0  0  0  0  0  0  0  0  0  0  0  0
   53.5930   51.4240   21.2780 H   0  0  0  0  0  0  0  0  0  0  0  0
   52.1620   50.6710   20.0750 C   0  0  0  0  0  0  0  0  0  0  0  0
   50.9200   50.8670   19.5890 N   0  0  0  0  0  0  0  0  0  0  0  0
   50.4140   51.6500   19.8520 H   0  0  0  0  0  0  0  0  0  0  0  0
   52.7960   49.6870   19.7450 O   0  0  0  0  0  0  0  0  0  0  0  0
   50.3350   49.8950   18.6600 C   0  0  0  0  0  0  0  0  0  0  0  0
   48.8930   50.1300   18.2080 C   0  0  0  0  0  0  0  0  0  0  0  0
   49.2130   49.0000   19.1890 C   0  0  0  0  0  0  0  0  0  0  0  0
   49.3470   54.3210   19.4300 N   0  0  0  0  0  0  0  0  0  0  0  0
   49.3570   53.3680   19.6090 H   0  0  0  0  0  0  0  0  0  0  0  0
   47.0800   56.2760   14.6130 C   0  0  0  0  0  0  0  0  0  0  0  0
   47.6830   55.7560   15.8920 C   0  0  0  0  0  0  0  0  0  0  0  0
   48.2190   56.6410   16.8110 C   0  0  0  0  0  0  0  0  0  0  0  0
   48.7710   56.1690   17.9860 C   0  0  0  0  0  0  0  0  0  0  0  0
   48.7880   54.8030   18.2440 C   0  0  0  0  0  0  0  0  0  0  0  0
   48.2500   53.9180   17.3190 C   0  0  0  0  0  0  0  0  0  0  0  0
   47.6930   54.3980   16.1500 C   0  0  0  0  0  0  0  0  0  0  0  0
  1  2  2  0  0  0  0
  1  6  1  0  0  0  0
  2  3  1  0  0  0  0
  3  4  2  0  0  0  0
  5  4  1  0  0  0  0
  6  5  2  0  0  0  0
  7  6  1  0  0  0  0
  7  8  1  0  0  0  0
  8  9  1  0  0  0  0
 10  7  2  0  0  0  0
 11 12  1  0  0  0  0
 11  8  1  0  0  0  0
 13 11  1  0  0  0  0
 14 15  1  0  0  0  0
 14 13  1  0  0  0  0
 16 13  2  0  0  0  0
 17 19  1  0  0  0  0
 17 14  1  0  0  0  0
 18 17  1  0  0  0  0
 18 19  1  0  0  0  0
 20 21  1  0  0  0  0
 20  1  1  0  0  0  0
 22 23  1  0  0  0  0
 23 28  2  0  0  0  0
 23 24  1  0  0  0  0
 24 25  2  0  0  0  0
 25 26  1  0  0  0  0
 26 20  1  0  0  0  0
 27 26  2  0  0  0  0
 28 27  1  0  0  0  0
M  END
>  <MODEL>
7

>  <REMARK>
  Name = ZINC64900758
                            x       y       z     vdW  Elec       q    Type
                         _______ _______ _______ _____ _____    ______ ____

>  <TORSDO>
F 5

>  <minimizedAffinity>
-8.0170963032364959

$$$$
ZINC64900758
 OpenBabel10211215123D

 28 30  0  0  0  0  0  0  0  0999 V2000
   49.4880   55.8710   19.1110 C   0  0  0  0  0  0  0  0  0  0  0  0
   48.3880   56.7200   19.1040 C   0  0  0  0  0  0  0  0  0  0  0  0
   48.0530   57.4270   20.2410 C   0  0  0  0  0  0  0  0  0  0  0  0
   48.8070   57.2970   21.3960 C   0  0  0  0  0  0  0  0  0  0  0  0
   49.9000   56.4600   21.4230 C   0  0  0  0  0  0  0  0  0  0  0  0
   50.2500   55.7330   20.2820 C   0  0  0  0  0  0  0  0  0  0  0  0
   51.4160   54.8310   20.3060 C   0  0  0  0  0  0  0  0  0  0  0  0
   51.3370   53.6440   20.9390 N   0  0  0  0  0  0  0  0  0  0  0  0
   50.5140   53.3840   21.3800 H   0  0  0  0  0  0  0  0  0  0  0  0
   52.4490   55.1580   19.7540 O   0  0  0  0  0  0  0  0  0  0  0  0
   52.4460   52.7870   20.9630 N   0  0  0  0  0  0  0  0  0  0  0  0
   53.3190   53.1310   21.2050 H   0  0  0  0  0  0  0  0  0  0  0  0
   52.2980   51.4860   20.6460 C   0  0  0  0  0  0  0  0  0  0  0  0
   51.0840   51.0080   20.3080 N   0  0  0  0  0  0  0  0  0  0  0  0
   50.3170   51.6000   20.2930 H   0  0  0  0  0  0  0  0  0  0  0  0
   53.2600   50.7420   20.6670 O   0  0  0  0  0  0  0  0  0  0  0  0
   50.9230   49.5920   19.9640 C   0  0  0  0  0  0  0  0  0  0  0  0
   49.5010   49.0770   19.7400 C   0  0  0  0  0  0  0  0  0  0  0  0
   50.2670   48.6830   21.0050 C   0  0  0  0  0  0  0  0  0  0  0  0
   49.8270   55.1580   17.9700 N   0  0  0  0  0  0  0  0  0  0  0  0
   50.5510   55.4660   17.4020 H   0  0  0  0  0  0  0  0  0  0  0  0
   46.9810   50.4430   16.6160 C   0  0  0  0  0  0  0  0  0  0  0  0
   47.7370   51.6950   16.9760 C   0  0  0  0  0  0  0  0  0  0  0  0
   47.3440   52.9130   16.4500 C   0  0  0  0  0  0  0  0  0  0  0  0
   48.0340   54.0630   16.7780 C   0  0  0  0  0  0  0  0  0  0  0  0
   49.1260   53.9960   17.6360 C   0  0  0  0  0  0  0  0  0  0  0  0
   49.5180   52.7720   18.1610 C   0  0  0  0  0  0  0  0  0  0  0  0
   48.8190   51.6260   17.8340 C   0  0  0  0  0  0  0  0  0  0  0  0
  1  6  1  0  0  0  0
  2  1  2  0  0  0  0
  2  3  1  0  0  0  0
  3  4  2  0  0  0  0
  4  5  1  0  0  0  0
  6  7  1  0  0  0  0
  6  5  2  0  0  0  0
  7  8  1  0  0  0  0
  8 11  1  0  0  0  0
  8  9  1  0  0  0  0
 10  7  2  0  0  0  0
 11 12  1  0  0  0  0
 13 16  2  0  0  0  0
 13 11  1  0  0  0  0
 14 13  1  0  0  0  0
 15 14  1  0  0  0  0
 17 14  1  0  0  0  0
 17 19  1  0  0  0  0
 18 17  1  0  0  0  0
 18 19  1  0  0  0  0
 20  1  1  0  0  0  0
 21 20  1  0  0  0  0
 22 23  1  0  0  0  0
 23 28  2  0  0  0  0
 24 25  2  0  0  0  0
 24 23  1  0  0  0  0
 25 26  1  0  0  0  0
 26 20  1  0  0  0  0
 26 27  2  0  0  0  0
 28 27  1  0  0  0  0
M  END
>  <MODEL>
8

>  <REMARK>
  Name = ZINC64900758
                            x       y       z     vdW  Elec       q    Type
                         _______ _______ _______ _____ _____    ______ ____

>  <TORSDO>
F 5

>  <minimizedAffinity>
-7.9458045607729755

$$$$
ZINC64900758
 OpenBabel10211215123D

 28 30  0  0  0  0  0  0  0  0999 V2000
   47.3880   58.6820   18.4230 C   0  0  0  0  0  0  0  0  0  0  0  0
   46.8740   58.7620   17.1350 C   0  0  0  0  0  0  0  0  0  0  0  0
   47.1720   57.7830   16.2090 C   0  0  0  0  0  0  0  0  0  0  0  0
   47.9850   56.7160   16.5540 C   0  0  0  0  0  0  0  0  0  0  0  0
   48.5060   56.6190   17.8260 C   0  0  0  0  0  0  0  0  0  0  0  0
   48.2170   57.6040   18.7740 C   0  0  0  0  0  0  0  0  0  0  0  0
   48.7750   57.5090   20.1350 C   0  0  0  0  0  0  0  0  0  0  0  0
   50.0840   57.2440   20.3100 N   0  0  0  0  0  0  0  0  0  0  0  0
   50.6590   57.1140   19.5400 H   0  0  0  0  0  0  0  0  0  0  0  0
   48.0530   57.6710   21.1010 O   0  0  0  0  0  0  0  0  0  0  0  0
   50.6140   57.1530   21.6040 N   0  0  0  0  0  0  0  0  0  0  0  0
   50.5950   57.9250   22.1910 H   0  0  0  0  0  0  0  0  0  0  0  0
   51.1520   55.9940   22.0320 C   0  0  0  0  0  0  0  0  0  0  0  0
   51.1790   54.9220   21.2160 N   0  0  0  0  0  0  0  0  0  0  0  0
   50.8120   54.9840   20.3210 H   0  0  0  0  0  0  0  0  0  0  0  0
   51.6120   55.9150   23.1550 O   0  0  0  0  0  0  0  0  0  0  0  0
   51.7630   53.6610   21.6810 C   0  0  0  0  0  0  0  0  0  0  0  0
   51.7190   52.4670   20.7270 C   0  0  0  0  0  0  0  0  0  0  0  0
   50.8080   52.4980   21.9550 C   0  0  0  0  0  0  0  0  0  0  0  0
   47.0900   59.6650   19.3570 N   0  0  0  0  0  0  0  0  0  0  0  0
   47.1810   59.4790   20.3050 H   0  0  0  0  0  0  0  0  0  0  0  0
   45.3420   64.7790   17.6350 C   0  0  0  0  0  0  0  0  0  0  0  0
   45.8070   63.4210   18.0920 C   0  0  0  0  0  0  0  0  0  0  0  0
   44.9730   62.6290   18.8620 C   0  0  0  0  0  0  0  0  0  0  0  0
   45.3950   61.3830   19.2820 C   0  0  0  0  0  0  0  0  0  0  0  0
   46.6600   60.9250   18.9320 C   0  0  0  0  0  0  0  0  0  0  0  0
   47.4950   61.7220   18.1610 C   0  0  0  0  0  0  0  0  0  0  0  0
   47.0630   62.9650   17.7380 C   0  0  0  0  0  0  0  0  0  0  0  0
  1  6  1  0  0  0  0
  1 20  1  0  0  0  0
  2  1  2  0  0  0  0
  3  4  2  0  0  0  0
  3  2  1  0  0  0  0
  4  5  1  0  0  0  0
  5  6  2  0  0  0  0
  6  7  1  0  0  0  0
  7  8  1  0  0  0  0
  7 10  2  0  0  0  0
  8 11  1  0  0  0  0
  9  8  1  0  0  0  0
 11 13  1  0  0  0  0
 11 12  1  0  0  0  0
 13 16  2  0  0  0  0
 14 17  1  0  0  0  0
 14 13  1  0  0  0  0
 15 14  1  0  0  0  0
 17 19  1  0  0  0  0
 18 17  1  0  0  0  0
 18 19  1  0  0  0  0
 20 21  1  0  0  0  0
 22 23  1  0  0  0  0
 23 24  1  0  0  0  0
 24 25  2  0  0  0  0
 26 25  1  0  0  0  0
 26 20  1  0  0  0  0
 27 26  2  0  0  0  0
 28 23  2  0  0  0  0
 28 27  1  0  0  0  0
M  END
>  <MODEL>
9

>  <REMARK>
  Name = ZINC64900758
                            x       y       z     vdW  Elec       q    Type
                         _______ _______ _______ _____ _____    ______ ____

>  <TORSDO>
F 5

>  <minimizedAffinity>
-7.6244201738070432

$$$$
ZINC44784174
 OpenBabel10211215133D

 24 25  0  0  0  0  0  0  0  0999 V2000
   49.3690   50.2470   18.0410 N   0  0  0  0  0  0  0  0  0  0  0  0
   50.3690   50.0160   18.9140 C   0  0  0  0  0  0  0  0  0  0  0  0
   50.4990   48.9170   19.4110 O   0  0  0  0  0  0  0  0  0  0  0  0
   48.3890   49.2720   17.8270 C   0  0  0  0  0  0  0  0  0  0  0  0
   47.4280   49.0270   18.8000 C   0  0  0  0  0  0  0  0  0  0  0  0
   46.4610   48.0630   18.5860 C   0  0  0  0  0  0  0  0  0  0  0  0
   46.4490   47.3430   17.4050 C   0  0  0  0  0  0  0  0  0  0  0  0
   47.4050   47.5850   16.4350 C   0  0  0  0  0  0  0  0  0  0  0  0
   48.3710   48.5510   16.6400 C   0  0  0  0  0  0  0  0  0  0  0  0
   49.4070   48.8190   15.5800 C   0  0  0  0  0  0  0  0  0  0  0  0
   51.3270   51.1230   19.2730 C   0  0  0  0  0  0  0  0  0  0  0  0
   52.0930   50.7620   20.5580 C   0  0  0  0  0  0  0  0  0  0  0  0
   51.7510   51.8520   21.5960 C   0  0  0  0  0  0  0  0  0  0  0  0
   50.3930   52.4210   21.1150 C   0  0  0  0  0  0  0  0  0  0  0  0
   50.5470   52.4190   19.5740 C   0  0  0  0  0  0  0  0  0  0  0  0
   52.2960   51.3530   18.1420 C   0  0  0  0  0  0  0  0  0  0  0  0
   52.8720   52.5020   18.0090 N   0  0  0  0  0  0  0  0  0  0  0  0
   52.5670   50.3400   17.2500 N   0  0  0  0  0  0  0  0  0  0  0  0
   53.2860   49.7150   17.4300 H   0  0  0  0  0  0  0  0  0  0  0  0
   52.0390   50.2510   16.4420 H   0  0  0  0  0  0  0  0  0  0  0  0
   53.7820   52.7190   16.9460 O   0  0  0  0  0  0  0  0  0  0  0  0
   53.4740   52.3890   16.0910 H   0  0  0  0  0  0  0  0  0  0  0  0
   47.8510   51.9670   17.1950 C   0  0  0  0  0  0  0  0  0  0  0  0
   49.3080   51.5190   17.3160 C   0  0  0  0  0  0  0  0  0  0  0  0
  1  2  1  0  0  0  0
  2 11  1  0  0  0  0
  2  3  2  0  0  0  0
  4  1  1  0  0  0  0
  4  5  2  0  0  0  0
  6  5  1  0  0  0  0
  7  6  2  0  0  0  0
  8  9  2  0  0  0  0
  8  7  1  0  0  0  0
  9  4  1  0  0  0  0
 10  9  1  0  0  0  0
 11 15  1  0  0  0  0
 11 12  1  0  0  0  0
 12 13  1  0  0  0  0
 14 13  1  0  0  0  0
 15 14  1  0  0  0  0
 16 11  1  0  0  0  0
 17 16  2  0  0  0  0
 18 19  1  0  0  0  0
 18 16  1  0  0  0  0
 20 18  1  0  0  0  0
 21 17  1  0  0  0  0
 22 21  1  0  0  0  0
 23 24  1  0  0  0  0
 24  1  1  0  0  0  0
M  END
>  <MODEL>
1

>  <REMARK>
  Name = ZINC44784174
                            x       y       z     vdW  Elec       q    Type
                         _______ _______ _______ _____ _____    ______ ____

>  <TORSDO>
F 6

>  <minimizedAffinity>
-7.6890260737718723

$$$$
ZINC44784174
 OpenBabel10211215133D

 24 25  0  0  0  0  0  0  0  0999 V2000
   49.8780   53.4260   19.0190 N   0  0  0  0  0  0  0  0  0  0  0  0
   50.4910   52.5380   19.8250 C   0  0  0  0  0  0  0  0  0  0  0  0
   50.6610   52.7990   20.9980 O   0  0  0  0  0  0  0  0  0  0  0  0
   49.5800   54.7090   19.4910 C   0  0  0  0  0  0  0  0  0  0  0  0
   48.2790   55.0330   19.8540 C   0  0  0  0  0  0  0  0  0  0  0  0
   47.9880   56.3000   20.3190 C   0  0  0  0  0  0  0  0  0  0  0  0
   48.9900   57.2470   20.4240 C   0  0  0  0  0  0  0  0  0  0  0  0
   50.2870   56.9290   20.0630 C   0  0  0  0  0  0  0  0  0  0  0  0
   50.5850   55.6610   19.6020 C   0  0  0  0  0  0  0  0  0  0  0  0
   51.9990   55.3130   19.2160 C   0  0  0  0  0  0  0  0  0  0  0  0
   50.9650   51.2190   19.2720 C   0  0  0  0  0  0  0  0  0  0  0  0
   49.7610   50.3600   18.8490 C   0  0  0  0  0  0  0  0  0  0  0  0
   49.8150   49.0740   19.7000 C   0  0  0  0  0  0  0  0  0  0  0  0
   50.6310   49.4820   20.9520 C   0  0  0  0  0  0  0  0  0  0  0  0
   51.7110   50.4250   20.3650 C   0  0  0  0  0  0  0  0  0  0  0  0
   51.8740   51.4510   18.0920 C   0  0  0  0  0  0  0  0  0  0  0  0
   52.7790   52.3720   18.1460 N   0  0  0  0  0  0  0  0  0  0  0  0
   51.7420   50.6810   16.9590 N   0  0  0  0  0  0  0  0  0  0  0  0
   50.8600   50.4650   16.6190 H   0  0  0  0  0  0  0  0  0  0  0  0
   52.5320   50.3550   16.5000 H   0  0  0  0  0  0  0  0  0  0  0  0
   53.6330   52.5910   17.0380 O   0  0  0  0  0  0  0  0  0  0  0  0
   54.4710   53.0160   17.2660 H   0  0  0  0  0  0  0  0  0  0  0  0
   48.0040   53.0870   17.4850 C   0  0  0  0  0  0  0  0  0  0  0  0
   49.5250   53.0500   17.6480 C   0  0  0  0  0  0  0  0  0  0  0  0
  1  4  1  0  0  0  0
  1  2  1  0  0  0  0
  2  3  2  0  0  0  0
  4  9  2  0  0  0  0
  4  5  1  0  0  0  0
  5  6  2  0  0  0  0
  6  7  1  0  0  0  0
  8  7  2  0  0  0  0
  9  8  1  0  0  0  0
 10  9  1  0  0  0  0
 11  2  1  0  0  0  0
 11 15  1  0  0  0  0
 12 11  1  0  0  0  0
 12 13  1  0  0  0  0
 13 14  1  0  0  0  0
 15 14  1  0  0  0  0
 16 17  2  0  0  0  0
 16 11  1  0  0  0  0
 18 16  1  0  0  0  0
 19 18  1  0  0  0  0
 20 18  1  0  0  0  0
 21 22  1  0  0  0  0
 21 17  1  0  0  0  0
 23 24  1  0  0  0  0
 24  1  1  0  0  0  0
M  END
>  <MODEL>
2

>  <REMARK>
  Name = ZINC44784174
                            x       y       z     vdW  Elec       q    Type
                         _______ _______ _______ _____ _____    ______ ____

>  <TORSDO>
F 6

>  <minimizedAffinity>
-7.2329853449744466

$$$$
ZINC44784174
 OpenBabel10211215133D

 24 25  0  0  0  0  0  0  0  0999 V2000
   49.8480   52.6810   18.5330 N   0  0  0  0  0  0  0  0  0  0  0  0
   49.9000   51.3600   18.7920 C   0  0  0  0  0  0  0  0  0  0  0  0
   50.3430   50.9670   19.8510 O   0  0  0  0  0  0  0  0  0  0  0  0
   50.4460   53.5910   19.4120 C   0  0  0  0  0  0  0  0  0  0  0  0
   49.6760   54.2480   20.3630 C   0  0  0  0  0  0  0  0  0  0  0  0
   50.2700   55.1460   21.2290 C   0  0  0  0  0  0  0  0  0  0  0  0
   51.6280   55.3900   21.1510 C   0  0  0  0  0  0  0  0  0  0  0  0
   52.3980   54.7370   20.2050 C   0  0  0  0  0  0  0  0  0  0  0  0
   51.8110   53.8340   19.3400 C   0  0  0  0  0  0  0  0  0  0  0  0
   52.6510   53.1180   18.3140 C   0  0  0  0  0  0  0  0  0  0  0  0
   49.4080   50.3700   17.7670 C   0  0  0  0  0  0  0  0  0  0  0  0
   47.9970   50.7580   17.2940 C   0  0  0  0  0  0  0  0  0  0  0  0
   47.0710   49.5790   17.6570 C   0  0  0  0  0  0  0  0  0  0  0  0
   47.8040   48.8640   18.8200 C   0  0  0  0  0  0  0  0  0  0  0  0
   49.2920   48.9690   18.4020 C   0  0  0  0  0  0  0  0  0  0  0  0
   50.3550   50.3290   16.5950 C   0  0  0  0  0  0  0  0  0  0  0  0
   49.8920   50.1910   15.3970 N   0  0  0  0  0  0  0  0  0  0  0  0
   51.7110   50.4390   16.8010 N   0  0  0  0  0  0  0  0  0  0  0  0
   52.3160   49.7930   16.4050 H   0  0  0  0  0  0  0  0  0  0  0  0
   52.0620   51.1630   17.3430 H   0  0  0  0  0  0  0  0  0  0  0  0
   50.7810   50.1520   14.2950 O   0  0  0  0  0  0  0  0  0  0  0  0
   50.4180   49.7180   13.5110 H   0  0  0  0  0  0  0  0  0  0  0  0
   48.5340   54.5290   17.6170 C   0  0  0  0  0  0  0  0  0  0  0  0
   49.1660   53.1660   17.3300 C   0  0  0  0  0  0  0  0  0  0  0  0
  1  2  1  0  0  0  0
  1  4  1  0  0  0  0
  2  3  2  0  0  0  0
  4  5  1  0  0  0  0
  5  6  2  0  0  0  0
  7  6  1  0  0  0  0
  8  7  2  0  0  0  0
  9  4  2  0  0  0  0
  9  8  1  0  0  0  0
 10  9  1  0  0  0  0
 11 15  1  0  0  0  0
 11  2  1  0  0  0  0
 12 13  1  0  0  0  0
 12 11  1  0  0  0  0
 13 14  1  0  0  0  0
 15 14  1  0  0  0  0
 16 18  1  0  0  0  0
 16 11  1  0  0  0  0
 17 16  2  0  0  0  0
 18 20  1  0  0  0  0
 19 18  1  0  0  0  0
 21 17  1  0  0  0  0
 22 21  1  0  0  0  0
 24 23  1  0  0  0  0
 24  1  1  0  0  0  0
M  END
>  <MODEL>
3

>  <REMARK>
  Name = ZINC44784174
                            x       y       z     vdW  Elec       q    Type
                         _______ _______ _______ _____ _____    ______ ____

>  <TORSDO>
F 6

>  <minimizedAffinity>
-6.9884779297381199

$$$$
ZINC44784174
 OpenBabel10211215133D

 24 25  0  0  0  0  0  0  0  0999 V2000
   49.2650   49.7880   17.3930 N   0  0  0  0  0  0  0  0  0  0  0  0
   49.6570   49.9670   18.6700 C   0  0  0  0  0  0  0  0  0  0  0  0
   49.1660   49.2980   19.5550 O   0  0  0  0  0  0  0  0  0  0  0  0
   48.1830   48.9490   17.1050 C   0  0  0  0  0  0  0  0  0  0  0  0
   48.3900   47.5890   16.9100 C   0  0  0  0  0  0  0  0  0  0  0  0
   47.3200   46.7640   16.6250 C   0  0  0  0  0  0  0  0  0  0  0  0
   46.0440   47.2880   16.5340 C   0  0  0  0  0  0  0  0  0  0  0  0
   45.8350   48.6420   16.7280 C   0  0  0  0  0  0  0  0  0  0  0  0
   46.9000   49.4720   17.0180 C   0  0  0  0  0  0  0  0  0  0  0  0
   46.6700   50.9450   17.2360 C   0  0  0  0  0  0  0  0  0  0  0  0
   50.7080   50.9960   19.0000 C   0  0  0  0  0  0  0  0  0  0  0  0
   50.4160   51.6280   20.3720 C   0  0  0  0  0  0  0  0  0  0  0  0
   50.2050   53.1370   20.1260 C   0  0  0  0  0  0  0  0  0  0  0  0
   49.7820   53.2240   18.6380 C   0  0  0  0  0  0  0  0  0  0  0  0
   50.6650   52.1430   17.9670 C   0  0  0  0  0  0  0  0  0  0  0  0
   52.0730   50.3570   19.0040 C   0  0  0  0  0  0  0  0  0  0  0  0
   52.5660   49.8960   20.1060 N   0  0  0  0  0  0  0  0  0  0  0  0
   52.7920   50.2620   17.8340 N   0  0  0  0  0  0  0  0  0  0  0  0
   52.7700   50.9870   17.1910 H   0  0  0  0  0  0  0  0  0  0  0  0
   53.3210   49.4700   17.6530 H   0  0  0  0  0  0  0  0  0  0  0  0
   53.8480   49.2950   20.1100 O   0  0  0  0  0  0  0  0  0  0  0  0
   54.4190   49.5790   19.3830 H   0  0  0  0  0  0  0  0  0  0  0  0
   49.8710   49.6400   15.0290 C   0  0  0  0  0  0  0  0  0  0  0  0
   49.9700   50.4740   16.3070 C   0  0  0  0  0  0  0  0  0  0  0  0
  1  2  1  0  0  0  0
  2 11  1  0  0  0  0
  2  3  2  0  0  0  0
  4  1  1  0  0  0  0
  5  4  2  0  0  0  0
  6  5  1  0  0  0  0
  7  6  2  0  0  0  0
  7  8  1  0  0  0  0
  8  9  2  0  0  0  0
  9  4  1  0  0  0  0
  9 10  1  0  0  0  0
 11 16  1  0  0  0  0
 11 12  1  0  0  0  0
 13 12  1  0  0  0  0
 14 13  1  0  0  0  0
 15 14  1  0  0  0  0
 15 11  1  0  0  0  0
 16 17  2  0  0  0  0
 17 21  1  0  0  0  0
 18 16  1  0  0  0  0
 19 18  1  0  0  0  0
 20 18  1  0  0  0  0
 22 21  1  0  0  0  0
 23 24  1  0  0  0  0
 24  1  1  0  0  0  0
M  END
>  <MODEL>
4

>  <REMARK>
  Name = ZINC44784174
                            x       y       z     vdW  Elec       q    Type
                         _______ _______ _______ _____ _____    ______ ____

>  <TORSDO>
F 6

>  <minimizedAffinity>
-6.9793736071797579

$$$$
ZINC44784174
 OpenBabel10211215133D

 24 25  0  0  0  0  0  0  0  0999 V2000
   50.1800   55.8700   19.3850 N   0  0  0  0  0  0  0  0  0  0  0  0
   49.8440   54.6020   19.6930 C   0  0  0  0  0  0  0  0  0  0  0  0
   48.6760   54.2790   19.7420 O   0  0  0  0  0  0  0  0  0  0  0  0
   49.1860   56.8500   19.2760 C   0  0  0  0  0  0  0  0  0  0  0  0
   48.6110   57.1250   18.0420 C   0  0  0  0  0  0  0  0  0  0  0  0
   47.6320   58.0920   17.9380 C   0  0  0  0  0  0  0  0  0  0  0  0
   47.2230   58.7880   19.0610 C   0  0  0  0  0  0  0  0  0  0  0  0
   47.7930   58.5170   20.2920 C   0  0  0  0  0  0  0  0  0  0  0  0
   48.7700   57.5460   20.4030 C   0  0  0  0  0  0  0  0  0  0  0  0
   49.3860   57.2470   21.7450 C   0  0  0  0  0  0  0  0  0  0  0  0
   50.9190   53.5850   19.9770 C   0  0  0  0  0  0  0  0  0  0  0  0
   50.3400   52.4180   20.7950 C   0  0  0  0  0  0  0  0  0  0  0  0
   51.1200   52.3840   22.1270 C   0  0  0  0  0  0  0  0  0  0  0  0
   51.6580   53.8280   22.2890 C   0  0  0  0  0  0  0  0  0  0  0  0
   52.0310   54.2200   20.8380 C   0  0  0  0  0  0  0  0  0  0  0  0
   51.4980   53.0730   18.6830 C   0  0  0  0  0  0  0  0  0  0  0  0
   52.7730   53.1230   18.4810 N   0  0  0  0  0  0  0  0  0  0  0  0
   50.6680   52.5500   17.7170 N   0  0  0  0  0  0  0  0  0  0  0  0
   49.7060   52.6260   17.8110 H   0  0  0  0  0  0  0  0  0  0  0  0
   51.0450   52.1040   16.9430 H   0  0  0  0  0  0  0  0  0  0  0  0
   53.3170   52.6410   17.2660 O   0  0  0  0  0  0  0  0  0  0  0  0
   53.9700   51.9370   17.3780 H   0  0  0  0  0  0  0  0  0  0  0  0
   52.0030   57.2990   20.1670 C   0  0  0  0  0  0  0  0  0  0  0  0
   51.5840   56.2240   19.1630 C   0  0  0  0  0  0  0  0  0  0  0  0
  1  2  1  0  0  0  0
  2  3  2  0  0  0  0
  2 11  1  0  0  0  0
  4  1  1  0  0  0  0
  4  9  2  0  0  0  0
  5  4  1  0  0  0  0
  6  5  2  0  0  0  0
  6  7  1  0  0  0  0
  7  8  2  0  0  0  0
  8  9  1  0  0  0  0
  9 10  1  0  0  0  0
 11 12  1  0  0  0  0
 11 15  1  0  0  0  0
 12 13  1  0  0  0  0
 13 14  1  0  0  0  0
 15 14  1  0  0  0  0
 16 11  1  0  0  0  0
 17 16  2  0  0  0  0
 18 19  1  0  0  0  0
 18 16  1  0  0  0  0
 20 18  1  0  0  0  0
 21 22  1  0  0  0  0
 21 17  1  0  0  0  0
 24  1  1  0  0  0  0
 24 23  1  0  0  0  0
M  END
>  <MODEL>
5

>  <REMARK>
  Name = ZINC44784174
                            x       y       z     vdW  Elec       q    Type
                         _______ _______ _______ _____ _____    ______ ____

>  <TORSDO>
F 6

>  <minimizedAffinity>
-6.9459372393032801

$$$$
ZINC44784174
 OpenBabel10211215133D

 24 25  0  0  0  0  0  0  0  0999 V2000
   51.4270   53.3440   20.0680 N   0  0  0  0  0  0  0  0  0  0  0  0
   50.6850   54.1200   20.8820 C   0  0  0  0  0  0  0  0  0  0  0  0
   49.8660   53.6150   21.6220 O   0  0  0  0  0  0  0  0  0  0  0  0
   51.1470   51.9770   19.9580 C   0  0  0  0  0  0  0  0  0  0  0  0
   51.8120   51.0630   20.7650 C   0  0  0  0  0  0  0  0  0  0  0  0
   51.5330   49.7150   20.6540 C   0  0  0  0  0  0  0  0  0  0  0  0
   50.5940   49.2740   19.7400 C   0  0  0  0  0  0  0  0  0  0  0  0
   49.9300   50.1820   18.9350 C   0  0  0  0  0  0  0  0  0  0  0  0
   50.2000   51.5320   19.0450 C   0  0  0  0  0  0  0  0  0  0  0  0
   49.4710   52.5200   18.1720 C   0  0  0  0  0  0  0  0  0  0  0  0
   50.8720   55.6150   20.8750 C   0  0  0  0  0  0  0  0  0  0  0  0
   49.5330   56.3170   21.1610 C   0  0  0  0  0  0  0  0  0  0  0  0
   49.2190   57.1870   19.9260 C   0  0  0  0  0  0  0  0  0  0  0  0
   50.0140   56.5180   18.7780 C   0  0  0  0  0  0  0  0  0  0  0  0
   51.3260   56.0840   19.4770 C   0  0  0  0  0  0  0  0  0  0  0  0
   51.8950   56.0110   21.9090 C   0  0  0  0  0  0  0  0  0  0  0  0
   52.8860   56.7720   21.5790 N   0  0  0  0  0  0  0  0  0  0  0  0
   51.7730   55.5630   23.2050 N   0  0  0  0  0  0  0  0  0  0  0  0
   50.9070   55.2910   23.5450 H   0  0  0  0  0  0  0  0  0  0  0  0
   52.5540   55.5200   23.7790 H   0  0  0  0  0  0  0  0  0  0  0  0
   53.8470   57.1440   22.5500 O   0  0  0  0  0  0  0  0  0  0  0  0
   53.8170   58.0790   22.7950 H   0  0  0  0  0  0  0  0  0  0  0  0
   53.0730   52.8910   18.3170 C   0  0  0  0  0  0  0  0  0  0  0  0
   52.5260   53.9300   19.2970 C   0  0  0  0  0  0  0  0  0  0  0  0
  1  2  1  0  0  0  0
  2  3  2  0  0  0  0
  4  1  1  0  0  0  0
  4  5  2  0  0  0  0
  6  5  1  0  0  0  0
  7  6  2  0  0  0  0
  8  9  2  0  0  0  0
  8  7  1  0  0  0  0
  9  4  1  0  0  0  0
 10  9  1  0  0  0  0
 11  2  1  0  0  0  0
 11 12  1  0  0  0  0
 11 16  1  0  0  0  0
 13 12  1  0  0  0  0
 14 15  1  0  0  0  0
 14 13  1  0  0  0  0
 15 11  1  0  0  0  0
 16 18  1  0  0  0  0
 17 16  2  0  0  0  0
 17 21  1  0  0  0  0
 18 19  1  0  0  0  0
 18 20  1  0  0  0  0
 21 22  1  0  0  0  0
 23 24  1  0  0  0  0
 24  1  1  0  0  0  0
M  END
>  <MODEL>
6

>  <REMARK>
  Name = ZINC44784174
                            x       y       z     vdW  Elec       q    Type
                         _______ _______ _______ _____ _____    ______ ____

>  <TORSDO>
F 6

>  <minimizedAffinity>
-6.8932424449857681

$$$$
ZINC44784174
 OpenBabel10211215133D

 24 25  0  0  0  0  0  0  0  0999 V2000
   48.8300   49.3030   18.3940 N   0  0  0  0  0  0  0  0  0  0  0  0
   48.8090   50.5860   17.9840 C   0  0  0  0  0  0  0  0  0  0  0  0
   47.7940   51.0580   17.5160 O   0  0  0  0  0  0  0  0  0  0  0  0
   47.7360   48.4690   18.1360 C   0  0  0  0  0  0  0  0  0  0  0  0
   46.6600   48.4410   19.0140 C   0  0  0  0  0  0  0  0  0  0  0  0
   45.5830   47.6160   18.7570 C   0  0  0  0  0  0  0  0  0  0  0  0
   45.5730   46.8190   17.6270 C   0  0  0  0  0  0  0  0  0  0  0  0
   46.6440   46.8450   16.7500 C   0  0  0  0  0  0  0  0  0  0  0  0
   47.7210   47.6720   16.9990 C   0  0  0  0  0  0  0  0  0  0  0  0
   48.8830   47.7040   16.0400 C   0  0  0  0  0  0  0  0  0  0  0  0
   50.0470   51.4380   18.1080 C   0  0  0  0  0  0  0  0  0  0  0  0
   50.6040   51.3540   19.5400 C   0  0  0  0  0  0  0  0  0  0  0  0
   50.5710   52.7880   20.1100 C   0  0  0  0  0  0  0  0  0  0  0  0
   49.4800   53.5040   19.2740 C   0  0  0  0  0  0  0  0  0  0  0  0
   49.6950   52.9190   17.8570 C   0  0  0  0  0  0  0  0  0  0  0  0
   51.0890   50.9790   17.1200 C   0  0  0  0  0  0  0  0  0  0  0  0
   52.3400   51.0070   17.4420 N   0  0  0  0  0  0  0  0  0  0  0  0
   50.7080   50.5300   15.8760 N   0  0  0  0  0  0  0  0  0  0  0  0
   51.1310   50.8880   15.0810 H   0  0  0  0  0  0  0  0  0  0  0  0
   50.0150   49.8570   15.7950 H   0  0  0  0  0  0  0  0  0  0  0  0
   53.3190   50.5760   16.5140 O   0  0  0  0  0  0  0  0  0  0  0  0
   52.9570   50.2750   15.6700 H   0  0  0  0  0  0  0  0  0  0  0  0
   49.6620   48.6330   20.5930 C   0  0  0  0  0  0  0  0  0  0  0  0
   49.9970   48.7800   19.1080 C   0  0  0  0  0  0  0  0  0  0  0  0
  1 24  1  0  0  0  0
  2 11  1  0  0  0  0
  2  1  1  0  0  0  0
  3  2  2  0  0  0  0
  4  1  1  0  0  0  0
  4  5  2  0  0  0  0
  6  5  1  0  0  0  0
  7  6  2  0  0  0  0
  8  9  2  0  0  0  0
  8  7  1  0  0  0  0
  9  4  1  0  0  0  0
 10  9  1  0  0  0  0
 11 12  1  0  0  0  0
 12 13  1  0  0  0  0
 14 13  1  0  0  0  0
 15 11  1  0  0  0  0
 15 14  1  0  0  0  0
 16 17  2  0  0  0  0
 16 11  1  0  0  0  0
 18 16  1  0  0  0  0
 19 18  1  0  0  0  0
 20 18  1  0  0  0  0
 21 17  1  0  0  0  0
 22 21  1  0  0  0  0
 24 23  1  0  0  0  0
M  END
>  <MODEL>
7

>  <REMARK>
  Name = ZINC44784174
                            x       y       z     vdW  Elec       q    Type
                         _______ _______ _______ _____ _____    ______ ____

>  <TORSDO>
F 6

>  <minimizedAffinity>
-6.8407182038492822

$$$$
ZINC44784174
 OpenBabel10211215133D

 24 25  0  0  0  0  0  0  0  0999 V2000
   51.0450   53.5810   19.9450 N   0  0  0  0  0  0  0  0  0  0  0  0
   50.5990   52.3980   20.4090 C   0  0  0  0  0  0  0  0  0  0  0  0
   49.8920   52.3600   21.3950 O   0  0  0  0  0  0  0  0  0  0  0  0
   50.8280   54.7490   20.6850 C   0  0  0  0  0  0  0  0  0  0  0  0
   51.7290   55.1250   21.6720 C   0  0  0  0  0  0  0  0  0  0  0  0
   51.5110   56.2780   22.4010 C   0  0  0  0  0  0  0  0  0  0  0  0
   50.3980   57.0580   22.1480 C   0  0  0  0  0  0  0  0  0  0  0  0
   49.4980   56.6860   21.1650 C   0  0  0  0  0  0  0  0  0  0  0  0
   49.7130   55.5370   20.4300 C   0  0  0  0  0  0  0  0  0  0  0  0
   48.7360   55.1360   19.3550 C   0  0  0  0  0  0  0  0  0  0  0  0
   50.9770   51.1200   19.7040 C   0  0  0  0  0  0  0  0  0  0  0  0
   51.2300   51.3950   18.2120 C   0  0  0  0  0  0  0  0  0  0  0  0
   50.2070   50.5460   17.4280 C   0  0  0  0  0  0  0  0  0  0  0  0
   49.0560   50.3100   18.4380 C   0  0  0  0  0  0  0  0  0  0  0  0
   49.8100   50.1130   19.7760 C   0  0  0  0  0  0  0  0  0  0  0  0
   52.2100   50.5270   20.3370 C   0  0  0  0  0  0  0  0  0  0  0  0
   52.9000   49.6410   19.7000 N   0  0  0  0  0  0  0  0  0  0  0  0
   52.6000   50.9310   21.5940 N   0  0  0  0  0  0  0  0  0  0  0  0
   53.4980   50.7410   21.9080 H   0  0  0  0  0  0  0  0  0  0  0  0
   51.9780   51.4060   22.1670 H   0  0  0  0  0  0  0  0  0  0  0  0
   54.0590   49.0840   20.2940 O   0  0  0  0  0  0  0  0  0  0  0  0
   54.1010   48.1190   20.2460 H   0  0  0  0  0  0  0  0  0  0  0  0
   53.2600   53.7840   18.9280 C   0  0  0  0  0  0  0  0  0  0  0  0
   51.7590   53.6460   18.6670 C   0  0  0  0  0  0  0  0  0  0  0  0
  1  2  1  0  0  0  0
  1  4  1  0  0  0  0
  2  3  2  0  0  0  0
  4  5  1  0  0  0  0
  5  6  2  0  0  0  0
  7  6  1  0  0  0  0
  8  7  2  0  0  0  0
  9  4  2  0  0  0  0
  9  8  1  0  0  0  0
 10  9  1  0  0  0  0
 11 15  1  0  0  0  0
 11 16  1  0  0  0  0
 11  2  1  0  0  0  0
 12 11  1  0  0  0  0
 13 12  1  0  0  0  0
 13 14  1  0  0  0  0
 14 15  1  0  0  0  0
 16 18  1  0  0  0  0
 17 21  1  0  0  0  0
 17 16  2  0  0  0  0
 18 19  1  0  0  0  0
 18 20  1  0  0  0  0
 22 21  1  0  0  0  0
 24 23  1  0  0  0  0
 24  1  1  0  0  0  0
M  END
>  <MODEL>
8

>  <REMARK>
  Name = ZINC44784174
                            x       y       z     vdW  Elec       q    Type
                         _______ _______ _______ _____ _____    ______ ____

>  <TORSDO>
F 6

>  <minimizedAffinity>
-6.7718768472992545

$$$$
ZINC44784174
 OpenBabel10211215133D

 24 25  0  0  0  0  0  0  0  0999 V2000
   48.9680   49.9880   18.0010 N   0  0  0  0  0  0  0  0  0  0  0  0
   49.3670   51.2720   17.9240 C   0  0  0  0  0  0  0  0  0  0  0  0
   48.7210   52.0710   17.2780 O   0  0  0  0  0  0  0  0  0  0  0  0
   47.9040   49.5380   17.2110 C   0  0  0  0  0  0  0  0  0  0  0  0
   46.6030   49.6030   17.6930 C   0  0  0  0  0  0  0  0  0  0  0  0
   45.5550   49.1580   16.9110 C   0  0  0  0  0  0  0  0  0  0  0  0
   45.7990   48.6480   15.6490 C   0  0  0  0  0  0  0  0  0  0  0  0
   47.0940   48.5820   15.1660 C   0  0  0  0  0  0  0  0  0  0  0  0
   48.1450   49.0310   15.9410 C   0  0  0  0  0  0  0  0  0  0  0  0
   49.5540   48.9650   15.4100 C   0  0  0  0  0  0  0  0  0  0  0  0
   50.6140   51.7190   18.6430 C   0  0  0  0  0  0  0  0  0  0  0  0
   50.4350   51.5590   20.1620 C   0  0  0  0  0  0  0  0  0  0  0  0
   50.5810   52.9680   20.7740 C   0  0  0  0  0  0  0  0  0  0  0  0
   50.2330   53.9260   19.6070 C   0  0  0  0  0  0  0  0  0  0  0  0
   50.8640   53.2190   18.3830 C   0  0  0  0  0  0  0  0  0  0  0  0
   51.7960   50.9090   18.1740 C   0  0  0  0  0  0  0  0  0  0  0  0
   52.5160   50.2620   19.0290 N   0  0  0  0  0  0  0  0  0  0  0  0
   52.1080   50.8590   16.8340 N   0  0  0  0  0  0  0  0  0  0  0  0
   52.5700   50.0870   16.4720 H   0  0  0  0  0  0  0  0  0  0  0  0
   51.8660   51.5960   16.2520 H   0  0  0  0  0  0  0  0  0  0  0  0
   53.6260   49.5010   18.5890 O   0  0  0  0  0  0  0  0  0  0  0  0
   54.4190   50.0270   18.4150 H   0  0  0  0  0  0  0  0  0  0  0  0
   48.6210   48.4110   19.8370 C   0  0  0  0  0  0  0  0  0  0  0  0
   49.6480   49.0610   18.9090 C   0  0  0  0  0  0  0  0  0  0  0  0
  1 24  1  0  0  0  0
  2  1  1  0  0  0  0
  2 11  1  0  0  0  0
  3  2  2  0  0  0  0
  4  5  1  0  0  0  0
  4  1  1  0  0  0  0
  6  5  2  0  0  0  0
  7  6  1  0  0  0  0
  8  7  2  0  0  0  0
  8  9  1  0  0  0  0
  9  4  2  0  0  0  0
 10  9  1  0  0  0  0
 11 12  1  0  0  0  0
 12 13  1  0  0  0  0
 14 13  1  0  0  0  0
 15 11  1  0  0  0  0
 15 14  1  0  0  0  0
 16 11  1  0  0  0  0
 16 17  2  0  0  0  0
 18 16  1  0  0  0  0
 19 18  1  0  0  0  0
 20 18  1  0  0  0  0
 21 17  1  0  0  0  0
 22 21  1  0  0  0  0
 24 23  1  0  0  0  0
M  END
>  <MODEL>
9

>  <REMARK>
  Name = ZINC44784174
                            x       y       z     vdW  Elec       q    Type
                         _______ _______ _______ _____ _____    ______ ____

>  <TORSDO>
F 6

>  <minimizedAffinity>
-6.7674530228018916

$$$$
ZINC04629485
 OpenBabel10211215143D

 23 25  0  0  0  0  0  0  0  0999 V2000
   48.4160   54.8160   19.4650 N   0  0  0  0  0  0  0  0  0  0  0  0
   47.8430   54.1170   19.8170 H   0  0  0  0  0  0  0  0  0  0  0  0
   48.8140   55.8730   20.2880 C   0  0  0  0  0  0  0  0  0  0  0  0
   48.0030   56.9830   20.4380 C   0  0  0  0  0  0  0  0  0  0  0  0
   48.3890   58.0330   21.2590 C   0  0  0  0  0  0  0  0  0  0  0  0
   49.5800   57.9970   21.9240 C   0  0  0  0  0  0  0  0  0  0  0  0
   50.4230   56.8840   21.7920 C   0  0  0  0  0  0  0  0  0  0  0  0
   51.6850   56.5470   22.3380 C   0  0  0  0  0  0  0  0  0  0  0  0
   52.0360   55.3780   21.8870 N   0  0  0  0  0  0  0  0  0  0  0  0
   51.0430   54.8840   21.0320 N   0  0  0  0  0  0  0  0  0  0  0  0
   51.0630   54.0070   20.5520 H   0  0  0  0  0  0  0  0  0  0  0  0
   50.0360   55.8140   20.9670 C   0  0  0  0  0  0  0  0  0  0  0  0
   48.8650   54.7640   18.0720 C   0  0  0  0  0  0  0  0  0  0  0  0
   49.5530   51.0550   17.7470 C   0  0  0  0  0  0  0  0  0  0  0  0
   48.7400   50.7220   16.6760 C   0  0  0  0  0  0  0  0  0  0  0  0
   47.9710   51.6940   16.0630 C   0  0  0  0  0  0  0  0  0  0  0  0
   48.0130   53.0000   16.5150 C   0  0  0  0  0  0  0  0  0  0  0  0
   48.8220   53.3390   17.5830 C   0  0  0  0  0  0  0  0  0  0  0  0
   49.5990   52.3710   18.1980 C   0  0  0  0  0  0  0  0  0  0  0  0
   49.6120   49.0450   19.0160 C   0  0  0  0  0  0  0  0  0  0  0  0
   50.3090   50.1010   18.3510 O   0  0  0  0  0  0  0  0  0  0  0  0
   50.4000   52.7050   19.2450 O   0  0  0  0  0  0  0  0  0  0  0  0
   49.9540   52.6860   20.1030 H   0  0  0  0  0  0  0  0  0  0  0  0
  1  2  1  0  0  0  0
  1  3  1  0  0  0  0
  3  4  2  0  0  0  0
  3 12  1  0  0  0  0
  4  5  1  0  0  0  0
  5  6  2  0  0  0  0
  7  6  1  0  0  0  0
  7  8  1  0  0  0  0
  9  8  2  0  0  0  0
 10  9  1  0  0  0  0
 11 10  1  0  0  0  0
 12 10  1  0  0  0  0
 12  7  2  0  0  0  0
 13  1  1  0  0  0  0
 14 19  1  0  0  0  0
 14 21  1  0  0  0  0
 15 14  2  0  0  0  0
 16 17  2  0  0  0  0
 16 15  1  0  0  0  0
 17 18  1  0  0  0  0
 18 13  1  0  0  0  0
 18 19  2  0  0  0  0
 19 22  1  0  0  0  0
 21 20  1  0  0  0  0
 22 23  1  0  0  0  0
M  END
>  <MODEL>
1

>  <REMARK>
  Name = ZINC04629485
                            x       y       z     vdW  Elec       q    Type
                         _______ _______ _______ _____ _____    ______ ____

>  <TORSDO>
F 5

>  <minimizedAffinity>
-7.8920291604586561

$$$$
ZINC04629485
 OpenBabel10211215143D

 23 25  0  0  0  0  0  0  0  0999 V2000
   51.7040   50.5400   18.1370 N   0  0  0  0  0  0  0  0  0  0  0  0
   52.1140   50.7230   17.2770 H   0  0  0  0  0  0  0  0  0  0  0  0
   50.3530   50.1860   18.2050 C   0  0  0  0  0  0  0  0  0  0  0  0
   49.9580   49.0830   18.9400 C   0  0  0  0  0  0  0  0  0  0  0  0
   48.6180   48.7300   19.0180 C   0  0  0  0  0  0  0  0  0  0  0  0
   47.6670   49.4550   18.3630 C   0  0  0  0  0  0  0  0  0  0  0  0
   48.0370   50.5800   17.6100 C   0  0  0  0  0  0  0  0  0  0  0  0
   47.3110   51.5200   16.8400 C   0  0  0  0  0  0  0  0  0  0  0  0
   48.1470   52.3810   16.3370 N   0  0  0  0  0  0  0  0  0  0  0  0
   49.4500   52.0650   16.7400 N   0  0  0  0  0  0  0  0  0  0  0  0
   50.2790   52.5680   16.4940 H   0  0  0  0  0  0  0  0  0  0  0  0
   49.3910   50.9470   17.5320 C   0  0  0  0  0  0  0  0  0  0  0  0
   52.4990   50.6320   19.3630 C   0  0  0  0  0  0  0  0  0  0  0  0
   52.0460   54.3300   20.0330 C   0  0  0  0  0  0  0  0  0  0  0  0
   51.6350   54.3170   21.3560 C   0  0  0  0  0  0  0  0  0  0  0  0
   51.5050   53.1160   22.0280 C   0  0  0  0  0  0  0  0  0  0  0  0
   51.7850   51.9260   21.3830 C   0  0  0  0  0  0  0  0  0  0  0  0
   52.1940   51.9320   20.0630 C   0  0  0  0  0  0  0  0  0  0  0  0
   52.3330   53.1320   19.3850 C   0  0  0  0  0  0  0  0  0  0  0  0
   52.6340   56.6320   20.1280 C   0  0  0  0  0  0  0  0  0  0  0  0
   52.1750   55.5100   19.3710 O   0  0  0  0  0  0  0  0  0  0  0  0
   52.7420   53.1400   18.0890 O   0  0  0  0  0  0  0  0  0  0  0  0
   53.0870   52.2900   17.7800 H   0  0  0  0  0  0  0  0  0  0  0  0
  1  3  1  0  0  0  0
  1 13  1  0  0  0  0
  2  1  1  0  0  0  0
  3  4  2  0  0  0  0
  4  5  1  0  0  0  0
  6  5  2  0  0  0  0
  7  6  1  0  0  0  0
  8  7  1  0  0  0  0
  9 10  1  0  0  0  0
  9  8  2  0  0  0  0
 10 12  1  0  0  0  0
 11 10  1  0  0  0  0
 12  7  2  0  0  0  0
 12  3  1  0  0  0  0
 13 18  1  0  0  0  0
 14 15  1  0  0  0  0
 15 16  2  0  0  0  0
 17 16  1  0  0  0  0
 18 17  2  0  0  0  0
 19 14  2  0  0  0  0
 19 18  1  0  0  0  0
 21 14  1  0  0  0  0
 21 20  1  0  0  0  0
 22 19  1  0  0  0  0
 23 22  1  0  0  0  0
M  END
>  <MODEL>
2

>  <REMARK>
  Name = ZINC04629485
                            x       y       z     vdW  Elec       q    Type
                         _______ _______ _______ _____ _____    ______ ____

>  <TORSDO>
F 5

>  <minimizedAffinity>
-7.6179471822487814

$$$$
ZINC04629485
 OpenBabel10211215143D

 23 25  0  0  0  0  0  0  0  0999 V2000
   51.1640   50.9050   17.4160 N   0  0  0  0  0  0  0  0  0  0  0  0
   51.6950   51.0420   16.6170 H   0  0  0  0  0  0  0  0  0  0  0  0
   49.7690   50.9730   17.3490 C   0  0  0  0  0  0  0  0  0  0  0  0
   49.1390   52.1920   17.1790 C   0  0  0  0  0  0  0  0  0  0  0  0
   47.7540   52.2650   17.1040 C   0  0  0  0  0  0  0  0  0  0  0  0
   46.9890   51.1410   17.2080 C   0  0  0  0  0  0  0  0  0  0  0  0
   47.6010   49.8900   17.3790 C   0  0  0  0  0  0  0  0  0  0  0  0
   47.1040   48.5710   17.5110 C   0  0  0  0  0  0  0  0  0  0  0  0
   48.1100   47.7580   17.6490 N   0  0  0  0  0  0  0  0  0  0  0  0
   49.3090   48.4800   17.6180 N   0  0  0  0  0  0  0  0  0  0  0  0
   50.2290   48.0960   17.7020 H   0  0  0  0  0  0  0  0  0  0  0  0
   49.0020   49.8070   17.4500 C   0  0  0  0  0  0  0  0  0  0  0  0
   51.8210   50.6260   18.6950 C   0  0  0  0  0  0  0  0  0  0  0  0
   52.0260   54.1490   20.0650 C   0  0  0  0  0  0  0  0  0  0  0  0
   51.3970   53.9990   21.2910 C   0  0  0  0  0  0  0  0  0  0  0  0
   50.9090   52.7630   21.6720 C   0  0  0  0  0  0  0  0  0  0  0  0
   51.0470   51.6730   20.8320 C   0  0  0  0  0  0  0  0  0  0  0  0
   51.6730   51.8160   19.6070 C   0  0  0  0  0  0  0  0  0  0  0  0
   52.1690   53.0500   19.2220 C   0  0  0  0  0  0  0  0  0  0  0  0
   52.5530   56.3800   20.6910 C   0  0  0  0  0  0  0  0  0  0  0  0
   52.5060   55.3630   19.6890 O   0  0  0  0  0  0  0  0  0  0  0  0
   52.7900   53.1900   18.0210 O   0  0  0  0  0  0  0  0  0  0  0  0
   52.4490   53.9190   17.4840 H   0  0  0  0  0  0  0  0  0  0  0  0
  1 13  1  0  0  0  0
  2  1  1  0  0  0  0
  3  1  1  0  0  0  0
  3 12  2  0  0  0  0
  4  3  1  0  0  0  0
  5  4  2  0  0  0  0
  5  6  1  0  0  0  0
  6  7  2  0  0  0  0
  7 12  1  0  0  0  0
  7  8  1  0  0  0  0
  8  9  2  0  0  0  0
 10  9  1  0  0  0  0
 10 11  1  0  0  0  0
 12 10  1  0  0  0  0
 13 18  1  0  0  0  0
 14 15  2  0  0  0  0
 15 16  1  0  0  0  0
 17 16  2  0  0  0  0
 18 17  1  0  0  0  0
 19 18  2  0  0  0  0
 19 14  1  0  0  0  0
 21 14  1  0  0  0  0
 21 20  1  0  0  0  0
 22 19  1  0  0  0  0
 23 22  1  0  0  0  0
M  END
>  <MODEL>
3

>  <REMARK>
  Name = ZINC04629485
                            x       y       z     vdW  Elec       q    Type
                         _______ _______ _______ _____ _____    ______ ____

>  <TORSDO>
F 5

>  <minimizedAffinity>
-7.4138237733221715

$$$$
ZINC04629485
 OpenBabel10211215143D

 23 25  0  0  0  0  0  0  0  0999 V2000
   50.2530   49.7750   18.1390 N   0  0  0  0  0  0  0  0  0  0  0  0
   50.9130   49.5620   17.4610 H   0  0  0  0  0  0  0  0  0  0  0  0
   50.1550   51.0790   18.6330 C   0  0  0  0  0  0  0  0  0  0  0  0
   49.4130   52.0280   17.9520 C   0  0  0  0  0  0  0  0  0  0  0  0
   49.3060   53.3230   18.4420 C   0  0  0  0  0  0  0  0  0  0  0  0
   49.9370   53.6880   19.5940 C   0  0  0  0  0  0  0  0  0  0  0  0
   50.6960   52.7470   20.3060 C   0  0  0  0  0  0  0  0  0  0  0  0
   51.4470   52.8060   21.5050 C   0  0  0  0  0  0  0  0  0  0  0  0
   51.9660   51.6340   21.7290 N   0  0  0  0  0  0  0  0  0  0  0  0
   51.5940   50.7490   20.7100 N   0  0  0  0  0  0  0  0  0  0  0  0
   51.8580   49.7860   20.6420 H   0  0  0  0  0  0  0  0  0  0  0  0
   50.8040   51.4320   19.8210 C   0  0  0  0  0  0  0  0  0  0  0  0
   49.3590   48.7320   18.6450 C   0  0  0  0  0  0  0  0  0  0  0  0
   46.9710   48.4420   15.7220 C   0  0  0  0  0  0  0  0  0  0  0  0
   45.7560   48.6940   16.3390 C   0  0  0  0  0  0  0  0  0  0  0  0
   45.7100   48.9560   17.6960 C   0  0  0  0  0  0  0  0  0  0  0  0
   46.8760   48.9680   18.4400 C   0  0  0  0  0  0  0  0  0  0  0  0
   48.0910   48.7170   17.8310 C   0  0  0  0  0  0  0  0  0  0  0  0
   48.1440   48.4600   16.4710 C   0  0  0  0  0  0  0  0  0  0  0  0
   45.7670   48.0360   13.7130 C   0  0  0  0  0  0  0  0  0  0  0  0
   47.0170   48.1850   14.3890 O   0  0  0  0  0  0  0  0  0  0  0  0
   49.3390   48.2190   15.8690 O   0  0  0  0  0  0  0  0  0  0  0  0
   49.6410   47.3030   15.9470 H   0  0  0  0  0  0  0  0  0  0  0  0
  1  3  1  0  0  0  0
  1 13  1  0  0  0  0
  2  1  1  0  0  0  0
  3 12  2  0  0  0  0
  4  5  2  0  0  0  0
  4  3  1  0  0  0  0
  5  6  1  0  0  0  0
  6  7  2  0  0  0  0
  7  8  1  0  0  0  0
  8  9  2  0  0  0  0
 10  9  1  0  0  0  0
 11 10  1  0  0  0  0
 12  7  1  0  0  0  0
 12 10  1  0  0  0  0
 14 15  2  0  0  0  0
 14 19  1  0  0  0  0
 15 16  1  0  0  0  0
 16 17  2  0  0  0  0
 18 17  1  0  0  0  0
 18 13  1  0  0  0  0
 19 18  2  0  0  0  0
 20 21  1  0  0  0  0
 21 14  1  0  0  0  0
 22 23  1  0  0  0  0
 22 19  1  0  0  0  0
M  END
>  <MODEL>
4

>  <REMARK>
  Name = ZINC04629485
                            x       y       z     vdW  Elec       q    Type
                         _______ _______ _______ _____ _____    ______ ____

>  <TORSDO>
F 5

>  <minimizedAffinity>
-7.3607473922238293

$$$$
ZINC04629485
 OpenBabel10211215143D

 23 25  0  0  0  0  0  0  0  0999 V2000
   49.8770   54.0140   18.4960 N   0  0  0  0  0  0  0  0  0  0  0  0
   50.7630   53.9290   18.8810 H   0  0  0  0  0  0  0  0  0  0  0  0
   49.1750   52.8710   18.1030 C   0  0  0  0  0  0  0  0  0  0  0  0
   48.0360   52.9860   17.3260 C   0  0  0  0  0  0  0  0  0  0  0  0
   47.3380   51.8540   16.9270 C   0  0  0  0  0  0  0  0  0  0  0  0
   47.7530   50.6100   17.3000 C   0  0  0  0  0  0  0  0  0  0  0  0
   48.9050   50.4630   18.0870 C   0  0  0  0  0  0  0  0  0  0  0  0
   49.5830   49.3410   18.6220 C   0  0  0  0  0  0  0  0  0  0  0  0
   50.6180   49.7590   19.2920 N   0  0  0  0  0  0  0  0  0  0  0  0
   50.6810   51.1570   19.2380 N   0  0  0  0  0  0  0  0  0  0  0  0
   51.3790   51.7300   19.6680 H   0  0  0  0  0  0  0  0  0  0  0  0
   49.6210   51.6030   18.4910 C   0  0  0  0  0  0  0  0  0  0  0  0
   49.2740   55.3370   18.3270 C   0  0  0  0  0  0  0  0  0  0  0  0
   51.1150   57.1680   21.0820 C   0  0  0  0  0  0  0  0  0  0  0  0
   50.0610   57.7190   21.7930 C   0  0  0  0  0  0  0  0  0  0  0  0
   48.7590   57.4990   21.3810 C   0  0  0  0  0  0  0  0  0  0  0  0
   48.5060   56.7290   20.2610 C   0  0  0  0  0  0  0  0  0  0  0  0
   49.5540   56.1770   19.5480 C   0  0  0  0  0  0  0  0  0  0  0  0
   50.8600   56.3880   19.9580 C   0  0  0  0  0  0  0  0  0  0  0  0
   52.8160   58.7430   21.6100 C   0  0  0  0  0  0  0  0  0  0  0  0
   52.3950   57.3840   21.4860 O   0  0  0  0  0  0  0  0  0  0  0  0
   51.8900   55.8410   19.2610 O   0  0  0  0  0  0  0  0  0  0  0  0
   51.6460   55.0590   18.7470 H   0  0  0  0  0  0  0  0  0  0  0  0
  1  2  1  0  0  0  0
  3 12  1  0  0  0  0
  3  1  1  0  0  0  0
  4  3  2  0  0  0  0
  5  6  2  0  0  0  0
  5  4  1  0  0  0  0
  6  7  1  0  0  0  0
  7 12  2  0  0  0  0
  7  8  1  0  0  0  0
  8  9  2  0  0  0  0
 10  9  1  0  0  0  0
 10 11  1  0  0  0  0
 12 10  1  0  0  0  0
 13  1  1  0  0  0  0
 13 18  1  0  0  0  0
 14 21  1  0  0  0  0
 14 15  2  0  0  0  0
 16 15  1  0  0  0  0
 17 16  2  0  0  0  0
 18 19  2  0  0  0  0
 18 17  1  0  0  0  0
 19 14  1  0  0  0  0
 21 20  1  0  0  0  0
 22 19  1  0  0  0  0
 23 22  1  0  0  0  0
M  END
>  <MODEL>
5

>  <REMARK>
  Name = ZINC04629485
                            x       y       z     vdW  Elec       q    Type
                         _______ _______ _______ _____ _____    ______ ____

>  <TORSDO>
F 5

>  <minimizedAffinity>
-7.1645926486140334

$$$$
ZINC04629485
 OpenBabel10211215143D

 23 25  0  0  0  0  0  0  0  0999 V2000
   49.2040   48.6500   16.3500 N   0  0  0  0  0  0  0  0  0  0  0  0
   49.9030   47.9980   16.5150 H   0  0  0  0  0  0  0  0  0  0  0  0
   47.9270   48.4540   16.8840 C   0  0  0  0  0  0  0  0  0  0  0  0
   47.7360   48.4620   18.2540 C   0  0  0  0  0  0  0  0  0  0  0  0
   46.4690   48.2750   18.7900 C   0  0  0  0  0  0  0  0  0  0  0  0
   45.3920   48.0690   17.9800 C   0  0  0  0  0  0  0  0  0  0  0  0
   45.5550   48.0570   16.5860 C   0  0  0  0  0  0  0  0  0  0  0  0
   44.6630   47.8800   15.5020 C   0  0  0  0  0  0  0  0  0  0  0  0
   45.3360   47.9590   14.3910 N   0  0  0  0  0  0  0  0  0  0  0  0
   46.6880   48.1880   14.6730 N   0  0  0  0  0  0  0  0  0  0  0  0
   47.4200   48.2900   13.9990 H   0  0  0  0  0  0  0  0  0  0  0  0
   46.8330   48.2510   16.0360 C   0  0  0  0  0  0  0  0  0  0  0  0
   49.4860   49.8390   15.5440 C   0  0  0  0  0  0  0  0  0  0  0  0
   49.9160   52.5120   18.1900 C   0  0  0  0  0  0  0  0  0  0  0  0
   48.8500   53.3490   17.9050 C   0  0  0  0  0  0  0  0  0  0  0  0
   47.9960   53.0500   16.8600 C   0  0  0  0  0  0  0  0  0  0  0  0
   48.2020   51.9150   16.0980 C   0  0  0  0  0  0  0  0  0  0  0  0
   49.2640   51.0750   16.3770 C   0  0  0  0  0  0  0  0  0  0  0  0
   50.1200   51.3660   17.4260 C   0  0  0  0  0  0  0  0  0  0  0  0
   51.3820   54.0890   19.1980 C   0  0  0  0  0  0  0  0  0  0  0  0
   50.7570   52.8040   19.2170 O   0  0  0  0  0  0  0  0  0  0  0  0
   51.1620   50.5380   17.7050 O   0  0  0  0  0  0  0  0  0  0  0  0
   50.8990   49.6310   17.9110 H   0  0  0  0  0  0  0  0  0  0  0  0
  1  2  1  0  0  0  0
  1  3  1  0  0  0  0
  3  4  2  0  0  0  0
  4  5  1  0  0  0  0
  6  5  2  0  0  0  0
  7  6  1  0  0  0  0
  8  7  1  0  0  0  0
  9 10  1  0  0  0  0
  9  8  2  0  0  0  0
 10 12  1  0  0  0  0
 11 10  1  0  0  0  0
 12  7  2  0  0  0  0
 12  3  1  0  0  0  0
 13  1  1  0  0  0  0
 13 18  1  0  0  0  0
 14 21  1  0  0  0  0
 15 14  1  0  0  0  0
 16 15  2  0  0  0  0
 17 18  2  0  0  0  0
 17 16  1  0  0  0  0
 18 19  1  0  0  0  0
 19 22  1  0  0  0  0
 19 14  2  0  0  0  0
 20 21  1  0  0  0  0
 22 23  1  0  0  0  0
M  END
>  <MODEL>
6

>  <REMARK>
  Name = ZINC04629485
                            x       y       z     vdW  Elec       q    Type
                         _______ _______ _______ _____ _____    ______ ____

>  <TORSDO>
F 5

>  <minimizedAffinity>
-7.1487239884643143

$$$$
ZINC04629485
 OpenBabel10211215143D

 23 25  0  0  0  0  0  0  0  0999 V2000
   49.1700   48.7940   16.8360 N   0  0  0  0  0  0  0  0  0  0  0  0
   49.7660   48.0550   17.0310 H   0  0  0  0  0  0  0  0  0  0  0  0
   47.9030   48.5480   16.3000 C   0  0  0  0  0  0  0  0  0  0  0  0
   47.7050   48.5890   14.9320 C   0  0  0  0  0  0  0  0  0  0  0  0
   46.4500   48.3390   14.3930 C   0  0  0  0  0  0  0  0  0  0  0  0
   45.3870   48.0600   15.2000 C   0  0  0  0  0  0  0  0  0  0  0  0
   45.5580   48.0110   16.5910 C   0  0  0  0  0  0  0  0  0  0  0  0
   44.6820   47.7500   17.6720 C   0  0  0  0  0  0  0  0  0  0  0  0
   45.3540   47.8300   18.7830 N   0  0  0  0  0  0  0  0  0  0  0  0
   46.6900   48.1430   18.5050 N   0  0  0  0  0  0  0  0  0  0  0  0
   47.4190   48.2620   19.1800 H   0  0  0  0  0  0  0  0  0  0  0  0
   46.8260   48.2570   17.1450 C   0  0  0  0  0  0  0  0  0  0  0  0
   49.5970   50.1690   17.1040 C   0  0  0  0  0  0  0  0  0  0  0  0
   51.4720   51.4380   20.1380 C   0  0  0  0  0  0  0  0  0  0  0  0
   51.2820   50.3940   21.0290 C   0  0  0  0  0  0  0  0  0  0  0  0
   50.5490   49.2850   20.6500 C   0  0  0  0  0  0  0  0  0  0  0  0
   50.0050   49.2130   19.3810 C   0  0  0  0  0  0  0  0  0  0  0  0
   50.1910   50.2510   18.4870 C   0  0  0  0  0  0  0  0  0  0  0  0
   50.9290   51.3630   18.8580 C   0  0  0  0  0  0  0  0  0  0  0  0
   51.6780   53.3090   21.5900 C   0  0  0  0  0  0  0  0  0  0  0  0
   52.1920   52.5290   20.5090 O   0  0  0  0  0  0  0  0  0  0  0  0
   51.1170   52.3820   17.9780 O   0  0  0  0  0  0  0  0  0  0  0  0
   50.6900   53.2100   18.2370 H   0  0  0  0  0  0  0  0  0  0  0  0
  1  2  1  0  0  0  0
  1 13  1  0  0  0  0
  3  1  1  0  0  0  0
  3 12  2  0  0  0  0
  4  3  1  0  0  0  0
  5  4  2  0  0  0  0
  5  6  1  0  0  0  0
  6  7  2  0  0  0  0
  7 12  1  0  0  0  0
  7  8  1  0  0  0  0
  8  9  2  0  0  0  0
 10  9  1  0  0  0  0
 10 11  1  0  0  0  0
 12 10  1  0  0  0  0
 13 18  1  0  0  0  0
 14 21  1  0  0  0  0
 14 15  2  0  0  0  0
 16 15  1  0  0  0  0
 17 16  2  0  0  0  0
 18 19  2  0  0  0  0
 18 17  1  0  0  0  0
 19 14  1  0  0  0  0
 21 20  1  0  0  0  0
 22 23  1  0  0  0  0
 22 19  1  0  0  0  0
M  END
>  <MODEL>
7

>  <REMARK>
  Name = ZINC04629485
                            x       y       z     vdW  Elec       q    Type
                         _______ _______ _______ _____ _____    ______ ____

>  <TORSDO>
F 5

>  <minimizedAffinity>
-7.0861234146112855

$$$$
ZINC04629485
 OpenBabel10211215143D

 23 25  0  0  0  0  0  0  0  0999 V2000
   50.4030   52.2370   17.9740 N   0  0  0  0  0  0  0  0  0  0  0  0
   51.0350   52.8020   17.5030 H   0  0  0  0  0  0  0  0  0  0  0  0
   49.4750   51.4780   17.2560 C   0  0  0  0  0  0  0  0  0  0  0  0
   48.1320   51.5230   17.5860 C   0  0  0  0  0  0  0  0  0  0  0  0
   47.2050   50.7770   16.8720 C   0  0  0  0  0  0  0  0  0  0  0  0
   47.5990   49.9760   15.8410 C   0  0  0  0  0  0  0  0  0  0  0  0
   48.9540   49.9100   15.4830 C   0  0  0  0  0  0  0  0  0  0  0  0
   49.6650   49.2000   14.4860 C   0  0  0  0  0  0  0  0  0  0  0  0
   50.9280   49.4980   14.5830 N   0  0  0  0  0  0  0  0  0  0  0  0
   51.1200   50.4050   15.6310 N   0  0  0  0  0  0  0  0  0  0  0  0
   51.9960   50.7950   15.9180 H   0  0  0  0  0  0  0  0  0  0  0  0
   49.8980   50.6680   16.1970 C   0  0  0  0  0  0  0  0  0  0  0  0
   50.4190   52.1800   19.4370 C   0  0  0  0  0  0  0  0  0  0  0  0
   51.2890   55.3530   21.3090 C   0  0  0  0  0  0  0  0  0  0  0  0
   50.1890   56.1460   21.0240 C   0  0  0  0  0  0  0  0  0  0  0  0
   49.1710   55.6550   20.2280 C   0  0  0  0  0  0  0  0  0  0  0  0
   49.2460   54.3720   19.7160 C   0  0  0  0  0  0  0  0  0  0  0  0
   50.3410   53.5770   19.9970 C   0  0  0  0  0  0  0  0  0  0  0  0
   51.3620   54.0600   20.7980 C   0  0  0  0  0  0  0  0  0  0  0  0
   52.6370   57.2110   21.9290 C   0  0  0  0  0  0  0  0  0  0  0  0
   52.2910   55.8340   22.0910 O   0  0  0  0  0  0  0  0  0  0  0  0
   52.4370   53.2770   21.0800 O   0  0  0  0  0  0  0  0  0  0  0  0
   52.7500   53.3520   21.9920 H   0  0  0  0  0  0  0  0  0  0  0  0
  1 13  1  0  0  0  0
  2  1  1  0  0  0  0
  3  4  1  0  0  0  0
  3  1  1  0  0  0  0
  5  4  2  0  0  0  0
  6  5  1  0  0  0  0
  7  6  2  0  0  0  0
  7 12  1  0  0  0  0
  8  9  2  0  0  0  0
  8  7  1  0  0  0  0
  9 10  1  0  0  0  0
 10 11  1  0  0  0  0
 10 12  1  0  0  0  0
 12  3  2  0  0  0  0
 13 18  1  0  0  0  0
 14 21  1  0  0  0  0
 15 14  1  0  0  0  0
 16 15  2  0  0  0  0
 17 18  2  0  0  0  0
 17 16  1  0  0  0  0
 18 19  1  0  0  0  0
 19 22  1  0  0  0  0
 19 14  2  0  0  0  0
 20 21  1  0  0  0  0
 22 23  1  0  0  0  0
M  END
>  <MODEL>
8

>  <REMARK>
  Name = ZINC04629485
                            x       y       z     vdW  Elec       q    Type
                         _______ _______ _______ _____ _____    ______ ____

>  <TORSDO>
F 5

>  <minimizedAffinity>
-7.0645362775518379

$$$$
ZINC04629485
 OpenBabel10211215143D

 23 25  0  0  0  0  0  0  0  0999 V2000
   50.9610   52.2440   19.5430 N   0  0  0  0  0  0  0  0  0  0  0  0
   51.6720   52.6310   19.0100 H   0  0  0  0  0  0  0  0  0  0  0  0
   50.1880   51.2000   19.0260 C   0  0  0  0  0  0  0  0  0  0  0  0
   50.2100   49.9540   19.6250 C   0  0  0  0  0  0  0  0  0  0  0  0
   49.4390   48.9150   19.1210 C   0  0  0  0  0  0  0  0  0  0  0  0
   48.6570   49.0980   18.0190 C   0  0  0  0  0  0  0  0  0  0  0  0
   48.6150   50.3510   17.3890 C   0  0  0  0  0  0  0  0  0  0  0  0
   47.9200   50.8530   16.2630 C   0  0  0  0  0  0  0  0  0  0  0  0
   48.2390   52.1040   16.1000 N   0  0  0  0  0  0  0  0  0  0  0  0
   49.1470   52.4930   17.0910 N   0  0  0  0  0  0  0  0  0  0  0  0
   49.5510   53.4020   17.1950 H   0  0  0  0  0  0  0  0  0  0  0  0
   49.3870   51.4090   17.8980 C   0  0  0  0  0  0  0  0  0  0  0  0
   50.6950   52.7510   20.8900 C   0  0  0  0  0  0  0  0  0  0  0  0
   50.6140   56.5020   21.3990 C   0  0  0  0  0  0  0  0  0  0  0  0
   49.4950   56.8510   20.6590 C   0  0  0  0  0  0  0  0  0  0  0  0
   48.7720   55.8760   19.9970 C   0  0  0  0  0  0  0  0  0  0  0  0
   49.1600   54.5510   20.0730 C   0  0  0  0  0  0  0  0  0  0  0  0
   50.2750   54.1960   20.8100 C   0  0  0  0  0  0  0  0  0  0  0  0
   51.0010   55.1670   21.4800 C   0  0  0  0  0  0  0  0  0  0  0  0
   52.2820   58.1920   21.2810 C   0  0  0  0  0  0  0  0  0  0  0  0
   51.3260   57.4590   22.0500 O   0  0  0  0  0  0  0  0  0  0  0  0
   52.0940   54.8190   22.2090 O   0  0  0  0  0  0  0  0  0  0  0  0
   52.7910   54.3890   21.6940 H   0  0  0  0  0  0  0  0  0  0  0  0
  1 13  1  0  0  0  0
  2  1  1  0  0  0  0
  3  1  1  0  0  0  0
  3  4  2  0  0  0  0
  5  4  1  0  0  0  0
  6  5  2  0  0  0  0
  7 12  2  0  0  0  0
  7  6  1  0  0  0  0
  8  7  1  0  0  0  0
  9  8  2  0  0  0  0
  9 10  1  0  0  0  0
 10 11  1  0  0  0  0
 10 12  1  0  0  0  0
 12  3  1  0  0  0  0
 14 19  1  0  0  0  0
 14 21  1  0  0  0  0
 15 14  2  0  0  0  0
 16 17  2  0  0  0  0
 16 15  1  0  0  0  0
 17 18  1  0  0  0  0
 18 13  1  0  0  0  0
 18 19  2  0  0  0  0
 19 22  1  0  0  0  0
 20 21  1  0  0  0  0
 23 22  1  0  0  0  0
M  END
>  <MODEL>
9

>  <REMARK>
  Name = ZINC04629485
                            x       y       z     vdW  Elec       q    Type
                         _______ _______ _______ _____ _____    ______ ____

>  <TORSDO>
F 5

>  <minimizedAffinity>
-7.0452566356333151

$$$$
ZINC49843543
 OpenBabel10211215153D

 24 25  0  0  1  0  0  0  0  0999 V2000
   51.4110   53.3230   21.0750 C   0  0  0  0  0  0  0  0  0  0  0  0
   51.2190   52.6220   19.9390 N   0  0  0  0  0  0  0  0  0  0  0  0
   51.0620   53.2980   18.6410 C   0  0  0  0  0  0  0  0  0  0  0  0
   49.6520   53.0070   18.1270 C   0  0  0  0  0  0  0  0  0  0  0  0
   49.3320   51.5400   18.2420 C   0  0  0  0  0  0  0  0  0  0  0  0
   48.3020   51.0410   17.4530 C   0  0  0  0  0  0  0  0  0  0  0  0
   47.9520   49.7090   17.5160 C   0  0  0  0  0  0  0  0  0  0  0  0
   48.6280   48.8600   18.3720 C   0  0  0  0  0  0  0  0  0  0  0  0
   49.6540   49.3510   19.1540 C   0  0  0  0  0  0  0  0  0  0  0  0
   50.0110   50.6910   19.0860 C   0  0  0  0  0  0  0  0  0  0  0  0
   51.1640   51.1560   19.9480 C   0  0  1  0  0  0  0  0  0  0  0  0
   51.6270   52.7410   22.1170 O   0  0  0  0  0  0  0  0  0  0  0  0
   52.4560   50.6040   19.4040 C   0  0  0  0  0  0  0  0  0  0  0  0
   52.7140   50.7110   18.2170 O   0  0  0  0  0  0  0  0  0  0  0  0
   53.2450   50.0520   20.1520 O   0  0  0  0  0  0  0  0  0  0  0  0
   51.3560   54.8280   21.0500 C   0  0  1  0  0  0  0  0  0  0  0  0
   51.7090   55.3740   22.4360 C   0  0  0  0  0  0  0  0  0  0  0  0
   52.3170   55.3380   20.0640 N   0  0  0  0  0  0  0  0  0  0  0  0
   52.8940   54.5800   19.7320 H   0  0  0  0  0  0  0  0  0  0  0  0
   52.9000   56.0410   20.4950 H   0  0  0  0  0  0  0  0  0  0  0  0
   51.8180   55.7460   19.2880 H   0  0  0  0  0  0  0  0  0  0  0  0
   49.9450   55.2810   20.6680 C   0  0  0  0  0  0  0  0  0  0  0  0
   48.3350   57.1910   20.7130 C   0  0  0  0  0  0  0  0  0  0  0  0
   49.7170   56.7110   21.1630 C   0  0  0  0  0  0  0  0  0  0  0  0
  1 12  2  0  0  0  0
  2 11  1  0  0  0  0
  2  1  1  0  0  0  0
  3  2  1  0  0  0  0
  4  5  1  0  0  0  0
  4  3  1  0  0  0  0
  5 10  2  0  0  0  0
  6  7  2  0  0  0  0
  6  5  1  0  0  0  0
  7  8  1  0  0  0  0
  8  9  2  0  0  0  0
 10  9  1  0  0  0  0
 10 11  1  0  0  0  0
 11 13  1  6  0  0  0
 13 15  1  0  0  0  0
 14 13  2  0  0  0  0
 16 18  1  6  0  0  0
 16  1  1  0  0  0  0
 16 17  1  0  0  0  0
 18 20  1  0  0  0  0
 19 18  1  0  0  0  0
 21 18  1  0  0  0  0
 22 16  1  0  0  0  0
 22 24  1  0  0  0  0
 23 24  1  0  0  0  0
M  END
>  <MODEL>
1

>  <REMARK>
  Name = ZINC49843543
                            x       y       z     vdW  Elec       q    Type
                         _______ _______ _______ _____ _____    ______ ____

>  <TORSDO>
F 5

>  <minimizedAffinity>
-8.4195582273173066

$$$$
ZINC49843543
 OpenBabel10211215153D

 24 25  0  0  1  0  0  0  0  0999 V2000
   51.4390   53.3110   21.1450 C   0  0  0  0  0  0  0  0  0  0  0  0
   51.2470   52.6530   19.9840 N   0  0  0  0  0  0  0  0  0  0  0  0
   51.1180   53.3750   18.7080 C   0  0  0  0  0  0  0  0  0  0  0  0
   49.7090   53.1280   18.1680 C   0  0  0  0  0  0  0  0  0  0  0  0
   49.3610   51.6640   18.2300 C   0  0  0  0  0  0  0  0  0  0  0  0
   48.3310   51.2120   17.4130 C   0  0  0  0  0  0  0  0  0  0  0  0
   47.9560   49.8860   17.4270 C   0  0  0  0  0  0  0  0  0  0  0  0
   48.6060   48.9950   18.2610 C   0  0  0  0  0  0  0  0  0  0  0  0
   49.6310   49.4400   19.0700 C   0  0  0  0  0  0  0  0  0  0  0  0
   50.0140   50.7740   19.0520 C   0  0  0  0  0  0  0  0  0  0  0  0
   51.1650   51.1890   19.9420 C   0  0  1  0  0  0  0  0  0  0  0  0
   51.6320   52.6900   22.1690 O   0  0  0  0  0  0  0  0  0  0  0  0
   52.4530   50.6310   19.3940 C   0  0  0  0  0  0  0  0  0  0  0  0
   53.2340   50.0580   20.1340 O   0  0  0  0  0  0  0  0  0  0  0  0
   52.7130   50.7500   18.2090 O   0  0  0  0  0  0  0  0  0  0  0  0
   51.4120   54.8170   21.1710 C   0  0  1  0  0  0  0  0  0  0  0  0
   50.0220   55.3090   20.7620 C   0  0  0  0  0  0  0  0  0  0  0  0
   51.7190   55.2890   22.5270 N   0  0  0  0  0  0  0  0  0  0  0  0
   52.5590   55.8480   22.5070 H   0  0  0  0  0  0  0  0  0  0  0  0
   51.8570   54.4960   23.1360 H   0  0  0  0  0  0  0  0  0  0  0  0
   50.9530   55.8470   22.8710 H   0  0  0  0  0  0  0  0  0  0  0  0
   52.4540   55.3630   20.1930 C   0  0  0  0  0  0  0  0  0  0  0  0
   53.8340   57.4100   20.5770 C   0  0  0  0  0  0  0  0  0  0  0  0
   52.4370   56.8920   20.2300 C   0  0  0  0  0  0  0  0  0  0  0  0
  1 16  1  0  0  0  0
  1 12  2  0  0  0  0
  2  1  1  0  0  0  0
  3  2  1  0  0  0  0
  4  5  1  0  0  0  0
  4  3  1  0  0  0  0
  5 10  2  0  0  0  0
  6  7  2  0  0  0  0
  6  5  1  0  0  0  0
  7  8  1  0  0  0  0
  8  9  2  0  0  0  0
 10  9  1  0  0  0  0
 10 11  1  0  0  0  0
 11 13  1  6  0  0  0
 11  2  1  0  0  0  0
 13 14  1  0  0  0  0
 15 13  2  0  0  0  0
 16 22  1  6  0  0  0
 16 18  1  0  0  0  0
 17 16  1  0  0  0  0
 18 21  1  0  0  0  0
 18 20  1  0  0  0  0
 19 18  1  0  0  0  0
 22 24  1  0  0  0  0
 24 23  1  0  0  0  0
M  END
>  <MODEL>
2

>  <REMARK>
  Name = ZINC49843543
                            x       y       z     vdW  Elec       q    Type
                         _______ _______ _______ _____ _____    ______ ____

>  <TORSDO>
F 5

>  <minimizedAffinity>
-7.9030472221841066

$$$$
ZINC49843543
 OpenBabel10211215153D

 24 25  0  0  1  0  0  0  0  0999 V2000
   50.2320   52.7910   18.8060 C   0  0  0  0  0  0  0  0  0  0  0  0
   50.1690   54.1370   18.8200 N   0  0  0  0  0  0  0  0  0  0  0  0
   51.3890   54.9600   18.8520 C   0  0  0  0  0  0  0  0  0  0  0  0
   51.4000   55.7330   20.1700 C   0  0  0  0  0  0  0  0  0  0  0  0
   50.0640   56.3810   20.4220 C   0  0  0  0  0  0  0  0  0  0  0  0
   50.0210   57.4420   21.3190 C   0  0  0  0  0  0  0  0  0  0  0  0
   48.8280   58.0730   21.6020 C   0  0  0  0  0  0  0  0  0  0  0  0
   47.6630   57.6480   20.9910 C   0  0  0  0  0  0  0  0  0  0  0  0
   47.7030   56.5980   20.0980 C   0  0  0  0  0  0  0  0  0  0  0  0
   48.9040   55.9660   19.8070 C   0  0  0  0  0  0  0  0  0  0  0  0
   48.8820   54.8410   18.7960 C   0  0  1  0  0  0  0  0  0  0  0  0
   49.2160   52.1380   18.6880 O   0  0  0  0  0  0  0  0  0  0  0  0
   48.6450   55.4060   17.4190 C   0  0  0  0  0  0  0  0  0  0  0  0
   48.3160   54.6680   16.5060 O   0  0  0  0  0  0  0  0  0  0  0  0
   48.7800   56.6010   17.2190 O   0  0  0  0  0  0  0  0  0  0  0  0
   51.5620   52.0970   18.9390 C   0  0  1  0  0  0  0  0  0  0  0  0
   51.3640   50.5850   18.8040 C   0  0  0  0  0  0  0  0  0  0  0  0
   52.4690   52.5680   17.8840 N   0  0  0  0  0  0  0  0  0  0  0  0
   52.1920   53.4930   17.5900 H   0  0  0  0  0  0  0  0  0  0  0  0
   52.4250   51.9380   17.0970 H   0  0  0  0  0  0  0  0  0  0  0  0
   53.4120   52.5970   18.2390 H   0  0  0  0  0  0  0  0  0  0  0  0
   52.1670   52.4120   20.3080 C   0  0  0  0  0  0  0  0  0  0  0  0
   50.6730   52.8400   22.2650 C   0  0  0  0  0  0  0  0  0  0  0  0
   51.3230   51.7550   21.4020 C   0  0  0  0  0  0  0  0  0  0  0  0
  1  2  1  0  0  0  0
  1 16  1  0  0  0  0
  2  3  1  0  0  0  0
  3  4  1  0  0  0  0
  4  5  1  0  0  0  0
  5  6  2  0  0  0  0
  6  7  1  0  0  0  0
  8  7  2  0  0  0  0
  9  8  1  0  0  0  0
 10  9  2  0  0  0  0
 10  5  1  0  0  0  0
 11 13  1  6  0  0  0
 11  2  1  0  0  0  0
 11 10  1  0  0  0  0
 12  1  2  0  0  0  0
 14 13  2  0  0  0  0
 15 13  1  0  0  0  0
 16 18  1  6  0  0  0
 16 22  1  0  0  0  0
 17 16  1  0  0  0  0
 18 21  1  0  0  0  0
 19 18  1  0  0  0  0
 20 18  1  0  0  0  0
 22 24  1  0  0  0  0
 24 23  1  0  0  0  0
M  END
>  <MODEL>
3

>  <REMARK>
  Name = ZINC49843543
                            x       y       z     vdW  Elec       q    Type
                         _______ _______ _______ _____ _____    ______ ____

>  <TORSDO>
F 5

>  <minimizedAffinity>
-7.386005259855458

$$$$
ZINC49843543
 OpenBabel10211215153D

 24 25  0  0  1  0  0  0  0  0999 V2000
   49.6250   50.2540   17.6710 C   0  0  0  0  0  0  0  0  0  0  0  0
   50.5730   50.6870   18.5260 N   0  0  0  0  0  0  0  0  0  0  0  0
   51.0570   49.8370   19.6270 C   0  0  0  0  0  0  0  0  0  0  0  0
   50.6770   50.5120   20.9440 C   0  0  0  0  0  0  0  0  0  0  0  0
   51.0410   51.9730   20.9220 C   0  0  0  0  0  0  0  0  0  0  0  0
   51.1640   52.6250   22.1430 C   0  0  0  0  0  0  0  0  0  0  0  0
   51.4860   53.9650   22.1940 C   0  0  0  0  0  0  0  0  0  0  0  0
   51.6870   54.6690   21.0210 C   0  0  0  0  0  0  0  0  0  0  0  0
   51.5700   54.0240   19.8080 C   0  0  0  0  0  0  0  0  0  0  0  0
   51.2510   52.6730   19.7560 C   0  0  0  0  0  0  0  0  0  0  0  0
   51.1680   52.0220   18.3940 C   0  0  1  0  0  0  0  0  0  0  0  0
   49.3090   50.9380   16.7200 O   0  0  0  0  0  0  0  0  0  0  0  0
   52.5510   51.8970   17.8080 C   0  0  0  0  0  0  0  0  0  0  0  0
   53.3270   52.8350   17.8700 O   0  0  0  0  0  0  0  0  0  0  0  0
   52.8950   50.8560   17.2740 O   0  0  0  0  0  0  0  0  0  0  0  0
   48.9580   48.9220   17.8970 C   0  0  1  0  0  0  0  0  0  0  0  0
   48.6040   48.2940   16.5470 C   0  0  0  0  0  0  0  0  0  0  0  0
   49.8710   48.0330   18.6260 N   0  0  0  0  0  0  0  0  0  0  0  0
   49.3960   47.1720   18.8500 H   0  0  0  0  0  0  0  0  0  0  0  0
   50.1700   48.4840   19.4780 H   0  0  0  0  0  0  0  0  0  0  0  0
   50.6760   47.8330   18.0520 H   0  0  0  0  0  0  0  0  0  0  0  0
   47.6820   49.1240   18.7160 C   0  0  0  0  0  0  0  0  0  0  0  0
   45.6430   47.6820   18.7870 C   0  0  0  0  0  0  0  0  0  0  0  0
   46.4770   48.6240   17.9160 C   0  0  0  0  0  0  0  0  0  0  0  0
  1 16  1  0  0  0  0
  1  2  1  0  0  0  0
  2  3  1  0  0  0  0
  3  4  1  0  0  0  0
  5  4  1  0  0  0  0
  5  6  2  0  0  0  0
  6  7  1  0  0  0  0
  8  7  2  0  0  0  0
  9  8  1  0  0  0  0
 10  9  2  0  0  0  0
 10  5  1  0  0  0  0
 11 13  1  1  0  0  0
 11  2  1  0  0  0  0
 11 10  1  0  0  0  0
 12  1  2  0  0  0  0
 13 14  1  0  0  0  0
 15 13  2  0  0  0  0
 16 17  1  6  0  0  0
 16 18  1  0  0  0  0
 16 22  1  0  0  0  0
 18 19  1  0  0  0  0
 18 20  1  0  0  0  0
 21 18  1  0  0  0  0
 24 22  1  0  0  0  0
 24 23  1  0  0  0  0
M  END
>  <MODEL>
4

>  <REMARK>
  Name = ZINC49843543
                            x       y       z     vdW  Elec       q    Type
                         _______ _______ _______ _____ _____    ______ ____

>  <TORSDO>
F 5

>  <minimizedAffinity>
-7.3308772597195615

$$$$
ZINC49843543
 OpenBabel10211215153D

 24 25  0  0  1  0  0  0  0  0999 V2000
   50.4260   52.8680   19.1700 C   0  0  0  0  0  0  0  0  0  0  0  0
   50.2870   54.2070   19.0920 N   0  0  0  0  0  0  0  0  0  0  0  0
   51.4580   55.0990   19.1070 C   0  0  0  0  0  0  0  0  0  0  0  0
   51.3800   55.9560   20.3700 C   0  0  0  0  0  0  0  0  0  0  0  0
   50.0020   56.5390   20.5380 C   0  0  0  0  0  0  0  0  0  0  0  0
   49.8690   57.6510   21.3600 C   0  0  0  0  0  0  0  0  0  0  0  0
   48.6340   58.2290   21.5640 C   0  0  0  0  0  0  0  0  0  0  0  0
   47.5160   57.6990   20.9470 C   0  0  0  0  0  0  0  0  0  0  0  0
   47.6450   56.5970   20.1270 C   0  0  0  0  0  0  0  0  0  0  0  0
   48.8890   56.0180   19.9160 C   0  0  0  0  0  0  0  0  0  0  0  0
   48.9650   54.8320   18.9820 C   0  0  1  0  0  0  0  0  0  0  0  0
   49.4530   52.1510   19.0640 O   0  0  0  0  0  0  0  0  0  0  0  0
   48.7440   55.2910   17.5640 C   0  0  0  0  0  0  0  0  0  0  0  0
   48.8590   56.4700   17.2790 O   0  0  0  0  0  0  0  0  0  0  0  0
   48.4540   54.4810   16.7000 O   0  0  0  0  0  0  0  0  0  0  0  0
   51.7880   52.2630   19.3890 C   0  0  1  0  0  0  0  0  0  0  0  0
   52.7930   52.9070   18.4320 C   0  0  0  0  0  0  0  0  0  0  0  0
   52.2120   52.4970   20.7750 N   0  0  0  0  0  0  0  0  0  0  0  0
   51.5080   52.1470   21.4070 H   0  0  0  0  0  0  0  0  0  0  0  0
   52.3360   53.4880   20.9250 H   0  0  0  0  0  0  0  0  0  0  0  0
   53.0840   52.0200   20.9460 H   0  0  0  0  0  0  0  0  0  0  0  0
   51.7250   50.7570   19.1240 C   0  0  0  0  0  0  0  0  0  0  0  0
   50.5780   49.1010   20.6020 C   0  0  0  0  0  0  0  0  0  0  0  0
   51.8060   50.0020   20.4520 C   0  0  0  0  0  0  0  0  0  0  0  0
  1 16  1  0  0  0  0
  2  3  1  0  0  0  0
  2  1  1  0  0  0  0
  3  4  1  0  0  0  0
  4  5  1  0  0  0  0
  5  6  2  0  0  0  0
  6  7  1  0  0  0  0
  8  7  2  0  0  0  0
  9  8  1  0  0  0  0
 10  9  2  0  0  0  0
 10  5  1  0  0  0  0
 11 13  1  6  0  0  0
 11  2  1  0  0  0  0
 11 10  1  0  0  0  0
 12  1  2  0  0  0  0
 14 13  1  0  0  0  0
 15 13  2  0  0  0  0
 16 17  1  6  0  0  0
 16 18  1  0  0  0  0
 18 20  1  0  0  0  0
 18 21  1  0  0  0  0
 18 19  1  0  0  0  0
 22 16  1  0  0  0  0
 22 24  1  0  0  0  0
 24 23  1  0  0  0  0
M  END
>  <MODEL>
5

>  <REMARK>
  Name = ZINC49843543
                            x       y       z     vdW  Elec       q    Type
                         _______ _______ _______ _____ _____    ______ ____

>  <TORSDO>
F 5

>  <minimizedAffinity>
-7.247663529797272

$$$$
ZINC49843543
 OpenBabel10211215153D

 24 25  0  0  1  0  0  0  0  0999 V2000
   49.8510   53.9880   19.9830 C   0  0  0  0  0  0  0  0  0  0  0  0
   49.8230   53.0850   18.9830 N   0  0  0  0  0  0  0  0  0  0  0  0
   49.2560   53.4190   17.6670 C   0  0  0  0  0  0  0  0  0  0  0  0
   48.0320   52.5310   17.4440 C   0  0  0  0  0  0  0  0  0  0  0  0
   48.3440   51.0950   17.7740 C   0  0  0  0  0  0  0  0  0  0  0  0
   47.5160   50.1160   17.2380 C   0  0  0  0  0  0  0  0  0  0  0  0
   47.7400   48.7830   17.5070 C   0  0  0  0  0  0  0  0  0  0  0  0
   48.7970   48.4130   18.3180 C   0  0  0  0  0  0  0  0  0  0  0  0
   49.6230   49.3820   18.8480 C   0  0  0  0  0  0  0  0  0  0  0  0
   49.4020   50.7250   18.5730 C   0  0  0  0  0  0  0  0  0  0  0  0
   50.3630   51.7330   19.1620 C   0  0  1  0  0  0  0  0  0  0  0  0
   50.4050   53.7190   21.0290 O   0  0  0  0  0  0  0  0  0  0  0  0
   51.6940   51.6290   18.4620 C   0  0  0  0  0  0  0  0  0  0  0  0
   52.6650   52.2160   18.9080 O   0  0  0  0  0  0  0  0  0  0  0  0
   51.8000   50.9550   17.4520 O   0  0  0  0  0  0  0  0  0  0  0  0
   49.1940   55.3320   19.8050 C   0  0  1  0  0  0  0  0  0  0  0  0
   49.6740   55.9650   18.4970 C   0  0  0  0  0  0  0  0  0  0  0  0
   47.7350   55.1620   19.7590 N   0  0  0  0  0  0  0  0  0  0  0  0
   47.3050   55.7640   20.4450 H   0  0  0  0  0  0  0  0  0  0  0  0
   47.5030   54.2010   19.9620 H   0  0  0  0  0  0  0  0  0  0  0  0
   47.3970   55.4040   18.8400 H   0  0  0  0  0  0  0  0  0  0  0  0
   49.5640   56.2410   20.9780 C   0  0  0  0  0  0  0  0  0  0  0  0
   49.0290   58.3950   22.1250 C   0  0  0  0  0  0  0  0  0  0  0  0
   48.5620   57.3940   21.0660 C   0  0  0  0  0  0  0  0  0  0  0  0
  1 12  2  0  0  0  0
  2 11  1  0  0  0  0
  2  1  1  0  0  0  0
  3  2  1  0  0  0  0
  4  3  1  0  0  0  0
  4  5  1  0  0  0  0
  5 10  2  0  0  0  0
  6  7  2  0  0  0  0
  6  5  1  0  0  0  0
  7  8  1  0  0  0  0
  8  9  2  0  0  0  0
 10  9  1  0  0  0  0
 10 11  1  0  0  0  0
 11 13  1  6  0  0  0
 13 14  1  0  0  0  0
 15 13  2  0  0  0  0
 16 17  1  6  0  0  0
 16  1  1  0  0  0  0
 16 22  1  0  0  0  0
 18 16  1  0  0  0  0
 18 20  1  0  0  0  0
 18 19  1  0  0  0  0
 21 18  1  0  0  0  0
 22 24  1  0  0  0  0
 24 23  1  0  0  0  0
M  END
>  <MODEL>
6

>  <REMARK>
  Name = ZINC49843543
                            x       y       z     vdW  Elec       q    Type
                         _______ _______ _______ _____ _____    ______ ____

>  <TORSDO>
F 5

>  <minimizedAffinity>
-7.1173728864763719

$$$$
ZINC49843543
 OpenBabel10211215153D

 24 25  0  0  1  0  0  0  0  0999 V2000
   51.3810   50.6890   18.6840 C   0  0  0  0  0  0  0  0  0  0  0  0
   50.1150   50.4890   18.2660 N   0  0  0  0  0  0  0  0  0  0  0  0
   49.1740   49.6660   19.0440 C   0  0  0  0  0  0  0  0  0  0  0  0
   48.8100   48.4450   18.2010 C   0  0  0  0  0  0  0  0  0  0  0  0
   48.4520   48.8500   16.7960 C   0  0  0  0  0  0  0  0  0  0  0  0
   47.7040   47.9570   16.0380 C   0  0  0  0  0  0  0  0  0  0  0  0
   47.3500   48.2610   14.7410 C   0  0  0  0  0  0  0  0  0  0  0  0
   47.7430   49.4650   14.1850 C   0  0  0  0  0  0  0  0  0  0  0  0
   48.4830   50.3560   14.9360 C   0  0  0  0  0  0  0  0  0  0  0  0
   48.8340   50.0520   16.2450 C   0  0  0  0  0  0  0  0  0  0  0  0
   49.6190   51.0860   17.0210 C   0  0  1  0  0  0  0  0  0  0  0  0
   52.1090   51.4430   18.0720 O   0  0  0  0  0  0  0  0  0  0  0  0
   48.7280   52.2560   17.3470 C   0  0  0  0  0  0  0  0  0  0  0  0
   47.5170   52.1190   17.3500 O   0  0  0  0  0  0  0  0  0  0  0  0
   49.2200   53.3410   17.6110 O   0  0  0  0  0  0  0  0  0  0  0  0
   51.8920   49.9770   19.9090 C   0  0  1  0  0  0  0  0  0  0  0  0
   50.7600   49.1580   20.5330 C   0  0  0  0  0  0  0  0  0  0  0  0
   52.9940   49.0820   19.5320 N   0  0  0  0  0  0  0  0  0  0  0  0
   52.9830   48.9360   18.5340 H   0  0  0  0  0  0  0  0  0  0  0  0
   52.8830   48.1960   20.0030 H   0  0  0  0  0  0  0  0  0  0  0  0
   53.8720   49.4970   19.8010 H   0  0  0  0  0  0  0  0  0  0  0  0
   52.3970   51.0060   20.9230 C   0  0  0  0  0  0  0  0  0  0  0  0
   51.6260   53.1660   21.9140 C   0  0  0  0  0  0  0  0  0  0  0  0
   51.2050   51.7440   21.5360 C   0  0  0  0  0  0  0  0  0  0  0  0
  2  1  1  0  0  0  0
  2  3  1  0  0  0  0
  4  3  1  0  0  0  0
  5  4  1  0  0  0  0
  6  5  2  0  0  0  0
  7  6  1  0  0  0  0
  8  7  2  0  0  0  0
  8  9  1  0  0  0  0
  9 10  2  0  0  0  0
 10  5  1  0  0  0  0
 10 11  1  0  0  0  0
 11 13  1  1  0  0  0
 11  2  1  0  0  0  0
 12  1  2  0  0  0  0
 13 14  2  0  0  0  0
 13 15  1  0  0  0  0
 16  1  1  6  0  0  0
 16 17  1  0  0  0  0
 16 22  1  0  0  0  0
 18 21  1  0  0  0  0
 18 16  1  0  0  0  0
 18 20  1  0  0  0  0
 19 18  1  0  0  0  0
 22 24  1  0  0  0  0
 24 23  1  0  0  0  0
M  END
>  <MODEL>
7

>  <REMARK>
  Name = ZINC49843543
                            x       y       z     vdW  Elec       q    Type
                         _______ _______ _______ _____ _____    ______ ____

>  <TORSDO>
F 5

>  <minimizedAffinity>
-6.9629724719046155

$$$$
ZINC49843543
 OpenBabel10211215153D

 24 25  0  0  1  0  0  0  0  0999 V2000
   46.5530   48.4380   16.4280 C   0  0  0  0  0  0  0  0  0  0  0  0
   47.8130   48.8440   16.6810 N   0  0  0  0  0  0  0  0  0  0  0  0
   48.7650   47.9810   17.4000 C   0  0  0  0  0  0  0  0  0  0  0  0
   49.1190   48.6690   18.7190 C   0  0  0  0  0  0  0  0  0  0  0  0
   49.4570   50.1190   18.4940 C   0  0  0  0  0  0  0  0  0  0  0  0
   50.1960   50.7680   19.4750 C   0  0  0  0  0  0  0  0  0  0  0  0
   50.5330   52.0980   19.3360 C   0  0  0  0  0  0  0  0  0  0  0  0
   50.1320   52.7950   18.2110 C   0  0  0  0  0  0  0  0  0  0  0  0
   49.4020   52.1520   17.2330 C   0  0  0  0  0  0  0  0  0  0  0  0
   49.0670   50.8110   17.3700 C   0  0  0  0  0  0  0  0  0  0  0  0
   48.2920   50.1610   16.2460 C   0  0  1  0  0  0  0  0  0  0  0  0
   45.8160   49.1300   15.7560 O   0  0  0  0  0  0  0  0  0  0  0  0
   49.1860   49.9960   15.0440 C   0  0  0  0  0  0  0  0  0  0  0  0
   50.3970   49.9660   15.1840 O   0  0  0  0  0  0  0  0  0  0  0  0
   48.6980   49.8890   13.9320 O   0  0  0  0  0  0  0  0  0  0  0  0
   46.0580   47.1270   16.9810 C   0  0  1  0  0  0  0  0  0  0  0  0
   44.6950   46.7970   16.3670 C   0  0  0  0  0  0  0  0  0  0  0  0
   47.0140   46.0630   16.6490 N   0  0  0  0  0  0  0  0  0  0  0  0
   47.6900   46.4120   15.9860 H   0  0  0  0  0  0  0  0  0  0  0  0
   46.5200   45.2810   16.2460 H   0  0  0  0  0  0  0  0  0  0  0  0
   47.4890   45.7640   17.4870 H   0  0  0  0  0  0  0  0  0  0  0  0
   45.9210   47.2330   18.5010 C   0  0  0  0  0  0  0  0  0  0  0  0
   44.1630   46.8140   20.2270 C   0  0  0  0  0  0  0  0  0  0  0  0
   44.4510   47.4530   18.8660 C   0  0  0  0  0  0  0  0  0  0  0  0
  1  2  1  0  0  0  0
  1 16  1  0  0  0  0
  2  3  1  0  0  0  0
  3  4  1  0  0  0  0
  5  4  1  0  0  0  0
  5  6  2  0  0  0  0
  7  6  1  0  0  0  0
  8  7  2  0  0  0  0
  9 10  2  0  0  0  0
  9  8  1  0  0  0  0
 10  5  1  0  0  0  0
 11 13  1  1  0  0  0
 11  2  1  0  0  0  0
 11 10  1  0  0  0  0
 12  1  2  0  0  0  0
 13 14  1  0  0  0  0
 15 13  2  0  0  0  0
 16 17  1  6  0  0  0
 16 22  1  0  0  0  0
 18 16  1  0  0  0  0
 18 21  1  0  0  0  0
 19 18  1  0  0  0  0
 20 18  1  0  0  0  0
 22 24  1  0  0  0  0
 24 23  1  0  0  0  0
M  END
>  <MODEL>
8

>  <REMARK>
  Name = ZINC49843543
                            x       y       z     vdW  Elec       q    Type
                         _______ _______ _______ _____ _____    ______ ____

>  <TORSDO>
F 5

>  <minimizedAffinity>
-6.940259381732643

$$$$
ZINC49843543
 OpenBabel10211215153D

 24 25  0  0  1  0  0  0  0  0999 V2000
   46.2660   49.2630   17.6220 C   0  0  0  0  0  0  0  0  0  0  0  0
   47.6090   49.3670   17.6220 N   0  0  0  0  0  0  0  0  0  0  0  0
   48.4680   48.1770   17.7430 C   0  0  0  0  0  0  0  0  0  0  0  0
   49.2480   48.2910   19.0520 C   0  0  0  0  0  0  0  0  0  0  0  0
   49.8560   49.6620   19.1960 C   0  0  0  0  0  0  0  0  0  0  0  0
   50.9190   49.8060   20.0800 C   0  0  0  0  0  0  0  0  0  0  0  0
   51.5150   51.0340   20.2660 C   0  0  0  0  0  0  0  0  0  0  0  0
   51.0530   52.1360   19.5690 C   0  0  0  0  0  0  0  0  0  0  0  0
   50.0010   51.9960   18.6880 C   0  0  0  0  0  0  0  0  0  0  0  0
   49.4030   50.7570   18.4960 C   0  0  0  0  0  0  0  0  0  0  0  0
   48.2740   50.6680   17.4940 C   0  0  1  0  0  0  0  0  0  0  0  0
   45.5820   50.2470   17.4300 O   0  0  0  0  0  0  0  0  0  0  0  0
   48.8250   50.8140   16.0990 C   0  0  0  0  0  0  0  0  0  0  0  0
   49.9650   50.4590   15.8520 O   0  0  0  0  0  0  0  0  0  0  0  0
   48.1290   51.2840   15.2150 O   0  0  0  0  0  0  0  0  0  0  0  0
   45.6120   47.9270   17.8620 C   0  0  1  0  0  0  0  0  0  0  0  0
   45.8490   47.4960   19.3110 C   0  0  0  0  0  0  0  0  0  0  0  0
   44.1690   48.0350   17.6120 N   0  0  0  0  0  0  0  0  0  0  0  0
   43.8100   48.8630   18.0620 H   0  0  0  0  0  0  0  0  0  0  0  0
   43.7020   47.2210   17.9850 H   0  0  0  0  0  0  0  0  0  0  0  0
   44.0020   48.0920   16.6200 H   0  0  0  0  0  0  0  0  0  0  0  0
   46.2160   46.8870   16.9160 C   0  0  0  0  0  0  0  0  0  0  0  0
   46.2510   47.7110   14.5570 C   0  0  0  0  0  0  0  0  0  0  0  0
   45.4570   46.9050   15.5870 C   0  0  0  0  0  0  0  0  0  0  0  0
  1  2  1  0  0  0  0
  1 16  1  0  0  0  0
  2  3  1  0  0  0  0
  3  4  1  0  0  0  0
  4  5  1  0  0  0  0
  5  6  2  0  0  0  0
  6  7  1  0  0  0  0
  8  7  2  0  0  0  0
  9  8  1  0  0  0  0
 10  9  2  0  0  0  0
 10  5  1  0  0  0  0
 11 13  1  6  0  0  0
 11  2  1  0  0  0  0
 11 10  1  0  0  0  0
 12  1  2  0  0  0  0
 14 13  1  0  0  0  0
 15 13  2  0  0  0  0
 16 22  1  6  0  0  0
 16 17  1  0  0  0  0
 18 16  1  0  0  0  0
 18 20  1  0  0  0  0
 18 19  1  0  0  0  0
 21 18  1  0  0  0  0
 23 24  1  0  0  0  0
 24 22  1  0  0  0  0
M  END
>  <MODEL>
9

>  <REMARK>
  Name = ZINC49843543
                            x       y       z     vdW  Elec       q    Type
                         _______ _______ _______ _____ _____    ______ ____

>  <TORSDO>
F 5

>  <minimizedAffinity>
-6.7130511926289786

$$$$
ZINC37590794
 OpenBabel10211215163D

 23 25  0  0  0  0  0  0  0  0999 V2000
   51.0490   53.8560   20.9980 C   0  0  0  0  0  0  0  0  0  0  0  0
   52.2740   53.0750   20.4950 C   0  0  0  0  0  0  0  0  0  0  0  0
   51.7920   51.9070   21.3700 C   0  0  0  0  0  0  0  0  0  0  0  0
   51.0870   52.9560   22.2450 C   0  0  0  0  0  0  0  0  0  0  0  0
   51.0470   57.4400   21.6920 C   0  0  0  0  0  0  0  0  0  0  0  0
   52.3840   57.1550   21.6930 C   0  0  0  0  0  0  0  0  0  0  0  0
   52.5180   55.8260   21.4420 N   0  0  0  0  0  0  0  0  0  0  0  0
   51.3350   55.3060   21.2910 C   0  0  0  0  0  0  0  0  0  0  0  0
   50.3990   56.2800   21.4410 N   0  0  0  0  0  0  0  0  0  0  0  0
   49.4380   56.1640   21.3780 H   0  0  0  0  0  0  0  0  0  0  0  0
   53.4760   58.1100   21.9230 C   0  0  0  0  0  0  0  0  0  0  0  0
   54.6390   57.7300   21.8870 O   0  0  0  0  0  0  0  0  0  0  0  0
   53.2230   59.2850   22.1520 O   0  0  0  0  0  0  0  0  0  0  0  0
   49.8520   53.6660   20.1750 N   0  0  0  0  0  0  0  0  0  0  0  0
   49.0140   53.4070   20.5890 H   0  0  0  0  0  0  0  0  0  0  0  0
   49.9150   53.8530   18.8420 C   0  0  0  0  0  0  0  0  0  0  0  0
   50.9800   54.0900   18.3130 O   0  0  0  0  0  0  0  0  0  0  0  0
   48.6630   53.7660   18.0080 C   0  0  0  0  0  0  0  0  0  0  0  0
   48.6530   52.4450   17.2370 C   0  0  0  0  0  0  0  0  0  0  0  0
   47.2010   51.9560   17.0220 C   0  0  0  0  0  0  0  0  0  0  0  0
   47.3690   50.4260   17.1660 C   0  0  0  0  0  0  0  0  0  0  0  0
   48.6080   50.2540   18.0140 C   0  0  0  0  0  0  0  0  0  0  0  0
   49.3110   51.3560   18.0510 C   0  0  0  0  0  0  0  0  0  0  0  0
  1  8  1  0  0  0  0
  1  4  1  0  0  0  0
  2  1  1  0  0  0  0
  2  3  1  0  0  0  0
  3  4  1  0  0  0  0
  5  6  2  0  0  0  0
  6 11  1  0  0  0  0
  7  6  1  0  0  0  0
  8  9  1  0  0  0  0
  8  7  2  0  0  0  0
  9  5  1  0  0  0  0
 10  9  1  0  0  0  0
 11 13  1  0  0  0  0
 12 11  2  0  0  0  0
 14 15  1  0  0  0  0
 14  1  1  0  0  0  0
 16 14  1  0  0  0  0
 17 16  2  0  0  0  0
 18 16  1  0  0  0  0
 19 18  1  0  0  0  0
 19 23  1  0  0  0  0
 20 21  1  0  0  0  0
 20 19  1  0  0  0  0
 21 22  1  0  0  0  0
 22 23  1  0  0  0  0
M  END
>  <MODEL>
1

>  <REMARK>
  Name = ZINC37590794
                            x       y       z     vdW  Elec       q    Type
                         _______ _______ _______ _____ _____    ______ ____

>  <TORSDO>
F 5

>  <minimizedAffinity>
-8.0433441372014709

$$$$
ZINC37590794
 OpenBabel10211215163D

 23 25  0  0  0  0  0  0  0  0999 V2000
   50.0510   55.1640   19.7770 C   0  0  0  0  0  0  0  0  0  0  0  0
   48.5840   55.5730   19.9920 C   0  0  0  0  0  0  0  0  0  0  0  0
   48.4770   55.6990   18.4640 C   0  0  0  0  0  0  0  0  0  0  0  0
   49.9940   55.9500   18.4560 C   0  0  0  0  0  0  0  0  0  0  0  0
   52.0860   56.1050   22.6580 C   0  0  0  0  0  0  0  0  0  0  0  0
   52.4970   57.0080   21.7180 C   0  0  0  0  0  0  0  0  0  0  0  0
   51.8000   56.7570   20.5790 N   0  0  0  0  0  0  0  0  0  0  0  0
   50.9970   55.7540   20.7900 C   0  0  0  0  0  0  0  0  0  0  0  0
   51.1510   55.3250   22.0700 N   0  0  0  0  0  0  0  0  0  0  0  0
   50.6730   54.5920   22.4890 H   0  0  0  0  0  0  0  0  0  0  0  0
   53.5060   58.0590   21.9050 C   0  0  0  0  0  0  0  0  0  0  0  0
   53.1570   59.2180   22.0840 O   0  0  0  0  0  0  0  0  0  0  0  0
   54.6970   57.7750   21.8810 O   0  0  0  0  0  0  0  0  0  0  0  0
   50.2390   53.7230   19.5940 N   0  0  0  0  0  0  0  0  0  0  0  0
   49.5830   53.0990   19.9430 H   0  0  0  0  0  0  0  0  0  0  0  0
   51.3250   53.2630   18.9410 C   0  0  0  0  0  0  0  0  0  0  0  0
   52.1890   54.0350   18.5820 O   0  0  0  0  0  0  0  0  0  0  0  0
   51.4650   51.7900   18.6560 C   0  0  0  0  0  0  0  0  0  0  0  0
   50.4950   51.0040   19.5400 C   0  0  0  0  0  0  0  0  0  0  0  0
   51.2740   50.1660   20.5810 C   0  0  0  0  0  0  0  0  0  0  0  0
   50.4070   48.8870   20.6540 C   0  0  0  0  0  0  0  0  0  0  0  0
   49.6900   48.8340   19.3250 C   0  0  0  0  0  0  0  0  0  0  0  0
   49.7360   49.9910   18.7170 C   0  0  0  0  0  0  0  0  0  0  0  0
  1  2  1  0  0  0  0
  1  8  1  0  0  0  0
  3  2  1  0  0  0  0
  4  3  1  0  0  0  0
  4  1  1  0  0  0  0
  6 11  1  0  0  0  0
  6  5  2  0  0  0  0
  7  8  2  0  0  0  0
  7  6  1  0  0  0  0
  8  9  1  0  0  0  0
  9 10  1  0  0  0  0
  9  5  1  0  0  0  0
 11 12  1  0  0  0  0
 13 11  2  0  0  0  0
 14  1  1  0  0  0  0
 14 15  1  0  0  0  0
 16 14  1  0  0  0  0
 17 16  2  0  0  0  0
 18 16  1  0  0  0  0
 18 19  1  0  0  0  0
 19 20  1  0  0  0  0
 20 21  1  0  0  0  0
 22 21  1  0  0  0  0
 23 22  1  0  0  0  0
 23 19  1  0  0  0  0
M  END
>  <MODEL>
2

>  <REMARK>
  Name = ZINC37590794
                            x       y       z     vdW  Elec       q    Type
                         _______ _______ _______ _____ _____    ______ ____

>  <TORSDO>
F 5

>  <minimizedAffinity>
-7.8426252173399096

$$$$
ZINC37590794
 OpenBabel10211215163D

 23 25  0  0  0  0  0  0  0  0999 V2000
   50.9780   51.9820   19.4900 C   0  0  0  0  0  0  0  0  0  0  0  0
   50.7420   50.9830   20.6360 C   0  0  0  0  0  0  0  0  0  0  0  0
   52.2110   51.2110   21.0310 C   0  0  0  0  0  0  0  0  0  0  0  0
   52.4650   51.5940   19.5640 C   0  0  0  0  0  0  0  0  0  0  0  0
   48.8760   51.4720   16.5480 C   0  0  0  0  0  0  0  0  0  0  0  0
   49.9140   50.6170   16.3020 C   0  0  0  0  0  0  0  0  0  0  0  0
   50.7800   50.7170   17.3450 N   0  0  0  0  0  0  0  0  0  0  0  0
   50.3150   51.5830   18.1960 C   0  0  0  0  0  0  0  0  0  0  0  0
   49.1340   52.0720   17.7320 N   0  0  0  0  0  0  0  0  0  0  0  0
   48.5760   52.7320   18.1720 H   0  0  0  0  0  0  0  0  0  0  0  0
   50.0650   49.7490   15.1270 C   0  0  0  0  0  0  0  0  0  0  0  0
   49.3400   48.7730   14.9910 O   0  0  0  0  0  0  0  0  0  0  0  0
   50.9170   50.0020   14.2850 O   0  0  0  0  0  0  0  0  0  0  0  0
   50.7160   53.3740   19.8590 N   0  0  0  0  0  0  0  0  0  0  0  0
   50.0270   53.5830   20.5090 H   0  0  0  0  0  0  0  0  0  0  0  0
   51.4320   54.3670   19.2940 C   0  0  0  0  0  0  0  0  0  0  0  0
   52.2310   54.1150   18.4180 O   0  0  0  0  0  0  0  0  0  0  0  0
   51.2400   55.7900   19.7530 C   0  0  0  0  0  0  0  0  0  0  0  0
   49.9320   55.9010   20.5380 C   0  0  0  0  0  0  0  0  0  0  0  0
   48.7840   56.3650   19.6110 C   0  0  0  0  0  0  0  0  0  0  0  0
   47.9730   57.2760   20.5620 C   0  0  0  0  0  0  0  0  0  0  0  0
   48.9700   57.7310   21.6010 C   0  0  0  0  0  0  0  0  0  0  0  0
   50.0400   56.9790   21.5900 C   0  0  0  0  0  0  0  0  0  0  0  0
  1  4  1  0  0  0  0
  1 14  1  0  0  0  0
  1  2  1  0  0  0  0
  2  3  1  0  0  0  0
  4  3  1  0  0  0  0
  5  9  1  0  0  0  0
  6  5  2  0  0  0  0
  6  7  1  0  0  0  0
  7  8  2  0  0  0  0
  8  1  1  0  0  0  0
  9 10  1  0  0  0  0
  9  8  1  0  0  0  0
 11  6  1  0  0  0  0
 12 11  1  0  0  0  0
 13 11  2  0  0  0  0
 14 15  1  0  0  0  0
 16 18  1  0  0  0  0
 16 14  1  0  0  0  0
 17 16  2  0  0  0  0
 18 19  1  0  0  0  0
 19 23  1  0  0  0  0
 20 19  1  0  0  0  0
 20 21  1  0  0  0  0
 21 22  1  0  0  0  0
 23 22  1  0  0  0  0
M  END
>  <MODEL>
3

>  <REMARK>
  Name = ZINC37590794
                            x       y       z     vdW  Elec       q    Type
                         _______ _______ _______ _____ _____    ______ ____

>  <TORSDO>
F 5

>  <minimizedAffinity>
-7.7903086989411729

$$$$
ZINC37590794
 OpenBabel10211215163D

 23 25  0  0  0  0  0  0  0  0999 V2000
   50.8600   50.9310   19.1690 C   0  0  0  0  0  0  0  0  0  0  0  0
   51.2730   49.5700   19.7560 C   0  0  0  0  0  0  0  0  0  0  0  0
   52.7170   50.0990   19.7610 C   0  0  0  0  0  0  0  0  0  0  0  0
   52.2940   51.0400   18.6210 C   0  0  0  0  0  0  0  0  0  0  0  0
   48.7250   51.1340   16.2150 C   0  0  0  0  0  0  0  0  0  0  0  0
   48.0240   50.2690   17.0080 C   0  0  0  0  0  0  0  0  0  0  0  0
   48.7290   50.1090   18.1590 N   0  0  0  0  0  0  0  0  0  0  0  0
   49.8100   50.8310   18.0930 C   0  0  0  0  0  0  0  0  0  0  0  0
   49.8380   51.4790   16.8990 N   0  0  0  0  0  0  0  0  0  0  0  0
   50.5330   52.0830   16.5930 H   0  0  0  0  0  0  0  0  0  0  0  0
   46.7430   49.6300   16.6780 C   0  0  0  0  0  0  0  0  0  0  0  0
   46.6560   48.9090   15.6930 O   0  0  0  0  0  0  0  0  0  0  0  0
   45.7640   49.8190   17.3870 O   0  0  0  0  0  0  0  0  0  0  0  0
   50.5420   51.9380   20.1840 N   0  0  0  0  0  0  0  0  0  0  0  0
   50.2530   51.6620   21.0680 H   0  0  0  0  0  0  0  0  0  0  0  0
   50.6500   53.2490   19.8890 C   0  0  0  0  0  0  0  0  0  0  0  0
   50.9250   53.5960   18.7600 O   0  0  0  0  0  0  0  0  0  0  0  0
   50.4300   54.2830   20.9620 C   0  0  0  0  0  0  0  0  0  0  0  0
   49.9890   55.6000   20.3200 C   0  0  0  0  0  0  0  0  0  0  0  0
   49.9910   56.7380   21.3670 C   0  0  0  0  0  0  0  0  0  0  0  0
   48.7570   57.5600   20.9270 C   0  0  0  0  0  0  0  0  0  0  0  0
   47.8820   56.5740   20.1890 C   0  0  0  0  0  0  0  0  0  0  0  0
   48.5550   55.5040   19.8550 C   0  0  0  0  0  0  0  0  0  0  0  0
  1  2  1  0  0  0  0
  1 14  1  0  0  0  0
  2  3  1  0  0  0  0
  4  1  1  0  0  0  0
  4  3  1  0  0  0  0
  5  9  1  0  0  0  0
  5  6  2  0  0  0  0
  6  7  1  0  0  0  0
  8  7  2  0  0  0  0
  8  1  1  0  0  0  0
  9  8  1  0  0  0  0
 10  9  1  0  0  0  0
 11  6  1  0  0  0  0
 11 13  1  0  0  0  0
 12 11  2  0  0  0  0
 14 15  1  0  0  0  0
 16 14  1  0  0  0  0
 16 18  1  0  0  0  0
 17 16  2  0  0  0  0
 19 18  1  0  0  0  0
 19 20  1  0  0  0  0
 21 20  1  0  0  0  0
 22 21  1  0  0  0  0
 23 22  1  0  0  0  0
 23 19  1  0  0  0  0
M  END
>  <MODEL>
4

>  <REMARK>
  Name = ZINC37590794
                            x       y       z     vdW  Elec       q    Type
                         _______ _______ _______ _____ _____    ______ ____

>  <TORSDO>
F 5

>  <minimizedAffinity>
-7.697276461741791

$$$$
ZINC37590794
 OpenBabel10211215163D

 23 25  0  0  0  0  0  0  0  0999 V2000
   49.1170   57.0880   20.4970 C   0  0  0  0  0  0  0  0  0  0  0  0
   48.1140   57.8760   21.3560 C   0  0  0  0  0  0  0  0  0  0  0  0
   47.5960   58.4920   20.0460 C   0  0  0  0  0  0  0  0  0  0  0  0
   48.9870   58.2120   19.4550 C   0  0  0  0  0  0  0  0  0  0  0  0
   52.1620   56.3380   22.3670 C   0  0  0  0  0  0  0  0  0  0  0  0
   52.5770   57.3530   21.5510 C   0  0  0  0  0  0  0  0  0  0  0  0
   51.5140   57.7260   20.7910 N   0  0  0  0  0  0  0  0  0  0  0  0
   50.4900   56.9890   21.1100 C   0  0  0  0  0  0  0  0  0  0  0  0
   50.8580   56.1170   22.0850 N   0  0  0  0  0  0  0  0  0  0  0  0
   50.2870   55.4540   22.5040 H   0  0  0  0  0  0  0  0  0  0  0  0
   53.9250   57.9340   21.5050 C   0  0  0  0  0  0  0  0  0  0  0  0
   54.7310   57.6810   22.3900 O   0  0  0  0  0  0  0  0  0  0  0  0
   54.2420   58.6730   20.5810 O   0  0  0  0  0  0  0  0  0  0  0  0
   48.6070   55.7960   20.0330 N   0  0  0  0  0  0  0  0  0  0  0  0
   47.8720   55.3680   20.5000 H   0  0  0  0  0  0  0  0  0  0  0  0
   49.1590   55.2010   18.9570 C   0  0  0  0  0  0  0  0  0  0  0  0
   50.1330   55.6910   18.4270 O   0  0  0  0  0  0  0  0  0  0  0  0
   48.5650   53.9280   18.4120 C   0  0  0  0  0  0  0  0  0  0  0  0
   49.6770   52.9020   18.1850 C   0  0  0  0  0  0  0  0  0  0  0  0
   49.0890   51.5830   17.6310 C   0  0  0  0  0  0  0  0  0  0  0  0
   49.9810   50.5330   18.3340 C   0  0  0  0  0  0  0  0  0  0  0  0
   50.4800   51.2250   19.5800 C   0  0  0  0  0  0  0  0  0  0  0  0
   50.3170   52.5200   19.4980 C   0  0  0  0  0  0  0  0  0  0  0  0
  1  8  1  0  0  0  0
  1  2  1  0  0  0  0
  3  2  1  0  0  0  0
  4  3  1  0  0  0  0
  4  1  1  0  0  0  0
  6  5  2  0  0  0  0
  7  8  2  0  0  0  0
  7  6  1  0  0  0  0
  8  9  1  0  0  0  0
  9  5  1  0  0  0  0
  9 10  1  0  0  0  0
 11  6  1  0  0  0  0
 11 12  1  0  0  0  0
 13 11  2  0  0  0  0
 14  1  1  0  0  0  0
 14 15  1  0  0  0  0
 16 14  1  0  0  0  0
 17 16  2  0  0  0  0
 18 16  1  0  0  0  0
 19 18  1  0  0  0  0
 19 23  1  0  0  0  0
 20 19  1  0  0  0  0
 20 21  1  0  0  0  0
 21 22  1  0  0  0  0
 23 22  1  0  0  0  0
M  END
>  <MODEL>
5

>  <REMARK>
  Name = ZINC37590794
                            x       y       z     vdW  Elec       q    Type
                         _______ _______ _______ _____ _____    ______ ____

>  <TORSDO>
F 5

>  <minimizedAffinity>
-7.6396583688472841

$$$$
ZINC37590794
 OpenBabel10211215163D

 23 25  0  0  0  0  0  0  0  0999 V2000
   49.4100   55.9060   19.2580 C   0  0  0  0  0  0  0  0  0  0  0  0
   49.9530   54.7330   18.4240 C   0  0  0  0  0  0  0  0  0  0  0  0
   48.5470   54.1190   18.5180 C   0  0  0  0  0  0  0  0  0  0  0  0
   48.3660   54.9230   19.8150 C   0  0  0  0  0  0  0  0  0  0  0  0
   51.2510   56.9690   22.2260 C   0  0  0  0  0  0  0  0  0  0  0  0
   52.1540   57.2230   21.2310 C   0  0  0  0  0  0  0  0  0  0  0  0
   51.5760   56.8620   20.0550 N   0  0  0  0  0  0  0  0  0  0  0  0
   50.3800   56.4090   20.2960 C   0  0  0  0  0  0  0  0  0  0  0  0
   50.1470   56.4600   21.6340 N   0  0  0  0  0  0  0  0  0  0  0  0
   49.3340   56.1830   22.0840 H   0  0  0  0  0  0  0  0  0  0  0  0
   53.5010   57.7830   21.4020 C   0  0  0  0  0  0  0  0  0  0  0  0
   53.6670   58.7740   22.1000 O   0  0  0  0  0  0  0  0  0  0  0  0
   54.4560   57.2590   20.8450 O   0  0  0  0  0  0  0  0  0  0  0  0
   48.8300   56.9830   18.4520 N   0  0  0  0  0  0  0  0  0  0  0  0
   49.0380   57.0480   17.5070 H   0  0  0  0  0  0  0  0  0  0  0  0
   48.0080   57.8850   19.0250 C   0  0  0  0  0  0  0  0  0  0  0  0
   47.8180   57.8580   20.2220 O   0  0  0  0  0  0  0  0  0  0  0  0
   47.3250   58.9270   18.1770 C   0  0  0  0  0  0  0  0  0  0  0  0
   47.2340   60.2400   18.9560 C   0  0  0  0  0  0  0  0  0  0  0  0
   45.7580   60.5830   19.2640 C   0  0  0  0  0  0  0  0  0  0  0  0
   45.7660   62.1230   19.1200 C   0  0  0  0  0  0  0  0  0  0  0  0
   46.9260   62.4160   18.1980 C   0  0  0  0  0  0  0  0  0  0  0  0
   47.7300   61.3890   18.1100 C   0  0  0  0  0  0  0  0  0  0  0  0
  1  4  1  0  0  0  0
  1  8  1  0  0  0  0
  2  3  1  0  0  0  0
  2  1  1  0  0  0  0
  3  4  1  0  0  0  0
  6 11  1  0  0  0  0
  6  5  2  0  0  0  0
  7  8  2  0  0  0  0
  7  6  1  0  0  0  0
  8  9  1  0  0  0  0
  9 10  1  0  0  0  0
  9  5  1  0  0  0  0
 11 12  1  0  0  0  0
 13 11  2  0  0  0  0
 14 16  1  0  0  0  0
 14  1  1  0  0  0  0
 15 14  1  0  0  0  0
 16 17  2  0  0  0  0
 18 19  1  0  0  0  0
 18 16  1  0  0  0  0
 19 20  1  0  0  0  0
 21 20  1  0  0  0  0
 22 21  1  0  0  0  0
 23 22  1  0  0  0  0
 23 19  1  0  0  0  0
M  END
>  <MODEL>
6

>  <REMARK>
  Name = ZINC37590794
                            x       y       z     vdW  Elec       q    Type
                         _______ _______ _______ _____ _____    ______ ____

>  <TORSDO>
F 5

>  <minimizedAffinity>
-7.517316208309972

$$$$
ZINC37590794
 OpenBabel10211215163D

 23 25  0  0  0  0  0  0  0  0999 V2000
   48.9740   50.3780   16.5400 C   0  0  0  0  0  0  0  0  0  0  0  0
   48.4810   51.2500   15.3730 C   0  0  0  0  0  0  0  0  0  0  0  0
   48.2960   49.9460   14.5800 C   0  0  0  0  0  0  0  0  0  0  0  0
   49.3770   49.3330   15.4860 C   0  0  0  0  0  0  0  0  0  0  0  0
   52.1780   51.3010   18.0280 C   0  0  0  0  0  0  0  0  0  0  0  0
   51.3390   52.2380   18.5650 C   0  0  0  0  0  0  0  0  0  0  0  0
   50.0930   51.9970   18.0780 N   0  0  0  0  0  0  0  0  0  0  0  0
   50.1450   50.9690   17.2820 C   0  0  0  0  0  0  0  0  0  0  0  0
   51.4240   50.5140   17.2280 N   0  0  0  0  0  0  0  0  0  0  0  0
   51.7410   49.7580   16.7090 H   0  0  0  0  0  0  0  0  0  0  0  0
   51.7150   53.3090   19.4970 C   0  0  0  0  0  0  0  0  0  0  0  0
   52.5190   54.1660   19.1520 O   0  0  0  0  0  0  0  0  0  0  0  0
   51.2270   53.3440   20.6190 O   0  0  0  0  0  0  0  0  0  0  0  0
   47.9030   49.9280   17.4320 N   0  0  0  0  0  0  0  0  0  0  0  0
   47.0610   50.4110   17.4620 H   0  0  0  0  0  0  0  0  0  0  0  0
   48.0860   48.8440   18.2120 C   0  0  0  0  0  0  0  0  0  0  0  0
   49.1660   48.2940   18.2410 O   0  0  0  0  0  0  0  0  0  0  0  0
   46.9490   48.3150   19.0470 C   0  0  0  0  0  0  0  0  0  0  0  0
   45.9430   47.5980   18.1450 C   0  0  0  0  0  0  0  0  0  0  0  0
   46.6770   46.8490   17.0080 C   0  0  0  0  0  0  0  0  0  0  0  0
   45.6950   47.0460   15.8300 C   0  0  0  0  0  0  0  0  0  0  0  0
   44.9260   48.2990   16.1760 C   0  0  0  0  0  0  0  0  0  0  0  0
   45.0590   48.6000   17.4420 C   0  0  0  0  0  0  0  0  0  0  0  0
  1  8  1  0  0  0  0
  1 14  1  0  0  0  0
  2  1  1  0  0  0  0
  3  2  1  0  0  0  0
  3  4  1  0  0  0  0
  4  1  1  0  0  0  0
  5  6  2  0  0  0  0
  6 11  1  0  0  0  0
  7  6  1  0  0  0  0
  8  7  2  0  0  0  0
  9  8  1  0  0  0  0
  9  5  1  0  0  0  0
 10  9  1  0  0  0  0
 11 13  1  0  0  0  0
 12 11  2  0  0  0  0
 14 15  1  0  0  0  0
 14 16  1  0  0  0  0
 16 17  2  0  0  0  0
 16 18  1  0  0  0  0
 19 18  1  0  0  0  0
 20 19  1  0  0  0  0
 21 22  1  0  0  0  0
 21 20  1  0  0  0  0
 22 23  1  0  0  0  0
 23 19  1  0  0  0  0
M  END
>  <MODEL>
7

>  <REMARK>
  Name = ZINC37590794
                            x       y       z     vdW  Elec       q    Type
                         _______ _______ _______ _____ _____    ______ ____

>  <TORSDO>
F 5

>  <minimizedAffinity>
-7.4534056594042735

$$$$
ZINC37590794
 OpenBabel10211215163D

 23 25  0  0  0  0  0  0  0  0999 V2000
   50.8750   51.1670   19.5300 C   0  0  0  0  0  0  0  0  0  0  0  0
   52.2670   51.0470   18.8880 C   0  0  0  0  0  0  0  0  0  0  0  0
   52.5800   49.9830   19.9520 C   0  0  0  0  0  0  0  0  0  0  0  0
   51.5190   50.6630   20.8330 C   0  0  0  0  0  0  0  0  0  0  0  0
   49.3140   54.4450   19.1450 C   0  0  0  0  0  0  0  0  0  0  0  0
   50.0270   54.6090   20.2990 C   0  0  0  0  0  0  0  0  0  0  0  0
   50.6650   53.4360   20.5540 N   0  0  0  0  0  0  0  0  0  0  0  0
   50.3690   52.5850   19.6150 C   0  0  0  0  0  0  0  0  0  0  0  0
   49.5320   53.1790   18.7250 N   0  0  0  0  0  0  0  0  0  0  0  0
   49.1590   52.7680   17.9290 H   0  0  0  0  0  0  0  0  0  0  0  0
   50.0930   55.8290   21.1150 C   0  0  0  0  0  0  0  0  0  0  0  0
   51.0380   56.0080   21.8710 O   0  0  0  0  0  0  0  0  0  0  0  0
   49.2030   56.6650   21.0380 O   0  0  0  0  0  0  0  0  0  0  0  0
   49.8860   50.2430   18.9690 N   0  0  0  0  0  0  0  0  0  0  0  0
   49.3720   49.6670   19.5560 H   0  0  0  0  0  0  0  0  0  0  0  0
   49.6920   50.1930   17.6360 C   0  0  0  0  0  0  0  0  0  0  0  0
   50.3960   50.8460   16.8960 O   0  0  0  0  0  0  0  0  0  0  0  0
   48.6010   49.3240   17.0660 C   0  0  0  0  0  0  0  0  0  0  0  0
   47.3680   49.3940   17.9680 C   0  0  0  0  0  0  0  0  0  0  0  0
   47.0020   47.9860   18.4920 C   0  0  0  0  0  0  0  0  0  0  0  0
   45.4570   48.0520   18.4910 C   0  0  0  0  0  0  0  0  0  0  0  0
   45.1180   49.1040   17.4610 C   0  0  0  0  0  0  0  0  0  0  0  0
   46.1610   49.8390   17.1770 C   0  0  0  0  0  0  0  0  0  0  0  0
  1  8  1  0  0  0  0
  1  4  1  0  0  0  0
  2  1  1  0  0  0  0
  2  3  1  0  0  0  0
  3  4  1  0  0  0  0
  5  6  2  0  0  0  0
  6  7  1  0  0  0  0
  6 11  1  0  0  0  0
  8  7  2  0  0  0  0
  9  5  1  0  0  0  0
  9  8  1  0  0  0  0
 10  9  1  0  0  0  0
 11 12  1  0  0  0  0
 13 11  2  0  0  0  0
 14  1  1  0  0  0  0
 14 15  1  0  0  0  0
 16 14  1  0  0  0  0
 17 16  2  0  0  0  0
 18 16  1  0  0  0  0
 18 19  1  0  0  0  0
 19 20  1  0  0  0  0
 21 20  1  0  0  0  0
 22 21  1  0  0  0  0
 23 22  1  0  0  0  0
 23 19  1  0  0  0  0
M  END
>  <MODEL>
8

>  <REMARK>
  Name = ZINC37590794
                            x       y       z     vdW  Elec       q    Type
                         _______ _______ _______ _____ _____    ______ ____

>  <TORSDO>
F 5

>  <minimizedAffinity>
-7.3438569006323764

$$$$
ZINC37590794
 OpenBabel10211215163D

 23 25  0  0  0  0  0  0  0  0999 V2000
   47.1520   60.0750   18.6650 C   0  0  0  0  0  0  0  0  0  0  0  0
   47.4320   61.5420   18.2980 C   0  0  0  0  0  0  0  0  0  0  0  0
   46.5220   61.9280   19.4750 C   0  0  0  0  0  0  0  0  0  0  0  0
   45.8350   60.5650   19.2900 C   0  0  0  0  0  0  0  0  0  0  0  0
   46.0720   58.2490   15.6940 C   0  0  0  0  0  0  0  0  0  0  0  0
   47.2800   57.6660   15.9570 C   0  0  0  0  0  0  0  0  0  0  0  0
   47.7920   58.2700   17.0610 N   0  0  0  0  0  0  0  0  0  0  0  0
   46.9560   59.1800   17.4680 C   0  0  0  0  0  0  0  0  0  0  0  0
   45.8780   59.1940   16.6410 N   0  0  0  0  0  0  0  0  0  0  0  0
   45.1060   59.7770   16.7170 H   0  0  0  0  0  0  0  0  0  0  0  0
   47.9080   56.5830   15.1880 C   0  0  0  0  0  0  0  0  0  0  0  0
   47.8480   55.4300   15.5940 O   0  0  0  0  0  0  0  0  0  0  0  0
   48.4930   56.8350   14.1430 O   0  0  0  0  0  0  0  0  0  0  0  0
   48.0950   59.5220   19.6410 N   0  0  0  0  0  0  0  0  0  0  0  0
   49.0090   59.8470   19.6710 H   0  0  0  0  0  0  0  0  0  0  0  0
   47.6920   58.5620   20.4970 C   0  0  0  0  0  0  0  0  0  0  0  0
   46.5780   58.0930   20.4020 O   0  0  0  0  0  0  0  0  0  0  0  0
   48.6270   58.0700   21.5720 C   0  0  0  0  0  0  0  0  0  0  0  0
   49.7520   57.2520   20.9350 C   0  0  0  0  0  0  0  0  0  0  0  0
   49.2170   55.8840   20.4520 C   0  0  0  0  0  0  0  0  0  0  0  0
   50.4170   54.9600   20.7620 C   0  0  0  0  0  0  0  0  0  0  0  0
   51.1650   55.6610   21.8710 C   0  0  0  0  0  0  0  0  0  0  0  0
   50.8040   56.9150   21.9650 C   0  0  0  0  0  0  0  0  0  0  0  0
  1  4  1  0  0  0  0
  1 14  1  0  0  0  0
  2  1  1  0  0  0  0
  2  3  1  0  0  0  0
  4  3  1  0  0  0  0
  5  6  2  0  0  0  0
  5  9  1  0  0  0  0
  6  7  1  0  0  0  0
  7  8  2  0  0  0  0
  8  1  1  0  0  0  0
  9 10  1  0  0  0  0
  9  8  1  0  0  0  0
 11 12  1  0  0  0  0
 11  6  1  0  0  0  0
 13 11  2  0  0  0  0
 14 15  1  0  0  0  0
 14 16  1  0  0  0  0
 16 18  1  0  0  0  0
 17 16  2  0  0  0  0
 19 18  1  0  0  0  0
 19 23  1  0  0  0  0
 20 21  1  0  0  0  0
 20 19  1  0  0  0  0
 21 22  1  0  0  0  0
 22 23  1  0  0  0  0
M  END
>  <MODEL>
9

>  <REMARK>
  Name = ZINC37590794
                            x       y       z     vdW  Elec       q    Type
                         _______ _______ _______ _____ _____    ______ ____

>  <TORSDO>
F 5

>  <minimizedAffinity>
-7.240203021135228

$$$$
ZINC64610704
 OpenBabel10211215173D

 25 26  0  0  1  0  0  0  0  0999 V2000
   50.4060   53.3050   18.1220 N   0  0  0  0  0  0  0  0  0  0  0  0
   50.5510   53.4170   17.1690 H   0  0  0  0  0  0  0  0  0  0  0  0
   50.4920   52.0790   18.6750 C   0  0  0  0  0  0  0  0  0  0  0  0
   50.3910   51.9480   19.8770 O   0  0  0  0  0  0  0  0  0  0  0  0
   50.8100   56.3900   20.0890 C   0  0  0  0  0  0  0  0  0  0  0  0
   51.1120   55.2910   19.2980 C   0  0  0  0  0  0  0  0  0  0  0  0
   50.1050   54.4140   18.9200 C   0  0  0  0  0  0  0  0  0  0  0  0
   48.7990   54.6380   19.3340 C   0  0  0  0  0  0  0  0  0  0  0  0
   48.5000   55.7330   20.1220 C   0  0  0  0  0  0  0  0  0  0  0  0
   49.5020   56.6070   20.5060 C   0  0  0  0  0  0  0  0  0  0  0  0
   49.2080   57.6730   21.2820 F   0  0  0  0  0  0  0  0  0  0  0  0
   53.7490   57.9010   21.8950 C   0  0  0  0  0  0  0  0  0  0  0  0
   52.5930   57.0000   21.5440 C   0  0  0  0  0  0  0  0  0  0  0  0
   51.8240   57.2770   20.4720 N   0  0  0  0  0  0  0  0  0  0  0  0
   51.9730   58.0920   19.9670 H   0  0  0  0  0  0  0  0  0  0  0  0
   52.3550   56.0250   22.2260 O   0  0  0  0  0  0  0  0  0  0  0  0
   50.7150   50.8710   17.8020 C   0  0  0  0  0  0  0  0  0  0  0  0
   49.3760   50.1790   17.5370 C   0  0  1  0  0  0  0  0  0  0  0  0
   48.2760   51.2400   17.5070 C   0  0  0  0  0  0  0  0  0  0  0  0
   48.0830   51.7760   16.0610 C   0  0  0  0  0  0  0  0  0  0  0  0
   48.2680   50.1970   15.1210 S   0  0  0  0  0  0  0  0  0  0  0  0
   49.4870   49.3730   16.2290 C   0  0  0  0  0  0  0  0  0  0  0  0
   49.0930   49.2260   18.6700 C   0  0  0  0  0  0  0  0  0  0  0  0
   47.9410   48.9510   18.9610 O   0  0  0  0  0  0  0  0  0  0  0  0
   50.0150   48.7330   19.2960 O   0  0  0  0  0  0  0  0  0  0  0  0
  1  3  1  0  0  0  0
  1  7  1  0  0  0  0
  2  1  1  0  0  0  0
  3  4  2  0  0  0  0
  5 14  1  0  0  0  0
  5 10  2  0  0  0  0
  6  5  1  0  0  0  0
  7  6  2  0  0  0  0
  7  8  1  0  0  0  0
  8  9  2  0  0  0  0
  9 10  1  0  0  0  0
 10 11  1  0  0  0  0
 13 12  1  0  0  0  0
 13 16  2  0  0  0  0
 14 13  1  0  0  0  0
 15 14  1  0  0  0  0
 17  3  1  0  0  0  0
 18 17  1  1  0  0  0
 18 23  1  0  0  0  0
 19 18  1  0  0  0  0
 20 19  1  0  0  0  0
 21 20  1  0  0  0  0
 21 22  1  0  0  0  0
 22 18  1  0  0  0  0
 23 24  2  0  0  0  0
 23 25  1  0  0  0  0
M  END
>  <MODEL>
1

>  <REMARK>
  Name = ZINC64610704
                            x       y       z     vdW  Elec       q    Type
                         _______ _______ _______ _____ _____    ______ ____

>  <TORSDO>
F 5

>  <minimizedAffinity>
-7.7720805458874658

$$$$
ZINC64610704
 OpenBabel10211215173D

 25 26  0  0  1  0  0  0  0  0999 V2000
   50.0820   51.4430   17.0770 N   0  0  0  0  0  0  0  0  0  0  0  0
   51.0370   51.3780   16.9180 H   0  0  0  0  0  0  0  0  0  0  0  0
   49.5820   52.5010   17.7450 C   0  0  0  0  0  0  0  0  0  0  0  0
   48.3820   52.6240   17.8750 O   0  0  0  0  0  0  0  0  0  0  0  0
   47.6800   48.6530   17.0600 C   0  0  0  0  0  0  0  0  0  0  0  0
   48.5280   49.6500   17.5210 C   0  0  0  0  0  0  0  0  0  0  0  0
   49.2250   50.4370   16.6160 C   0  0  0  0  0  0  0  0  0  0  0  0
   49.0720   50.2260   15.2520 C   0  0  0  0  0  0  0  0  0  0  0  0
   48.2270   49.2340   14.7940 C   0  0  0  0  0  0  0  0  0  0  0  0
   47.5340   48.4430   15.6940 C   0  0  0  0  0  0  0  0  0  0  0  0
   46.7130   47.4690   15.2440 F   0  0  0  0  0  0  0  0  0  0  0  0
   44.8950   47.2160   19.1490 C   0  0  0  0  0  0  0  0  0  0  0  0
   45.6840   48.1320   18.2490 C   0  0  0  0  0  0  0  0  0  0  0  0
   46.9740   47.8570   17.9710 N   0  0  0  0  0  0  0  0  0  0  0  0
   47.4130   47.1080   18.4030 H   0  0  0  0  0  0  0  0  0  0  0  0
   45.1580   49.1170   17.7750 O   0  0  0  0  0  0  0  0  0  0  0  0
   50.5120   53.5320   18.3310 C   0  0  0  0  0  0  0  0  0  0  0  0
   51.5070   52.8470   19.2700 C   0  0  1  0  0  0  0  0  0  0  0  0
   52.1690   53.9120   20.1430 C   0  0  0  0  0  0  0  0  0  0  0  0
   51.3530   54.1220   21.4490 C   0  0  0  0  0  0  0  0  0  0  0  0
   50.9000   52.3690   21.8130 S   0  0  0  0  0  0  0  0  0  0  0  0
   50.7610   51.7680   20.0770 C   0  0  0  0  0  0  0  0  0  0  0  0
   52.5710   52.1780   18.4390 C   0  0  0  0  0  0  0  0  0  0  0  0
   52.6540   50.9610   18.4190 O   0  0  0  0  0  0  0  0  0  0  0  0
   53.3510   52.8520   17.7880 O   0  0  0  0  0  0  0  0  0  0  0  0
  1  3  1  0  0  0  0
  2  1  1  0  0  0  0
  3  4  2  0  0  0  0
  3 17  1  0  0  0  0
  5  6  1  0  0  0  0
  5 14  1  0  0  0  0
  7  1  1  0  0  0  0
  7  6  2  0  0  0  0
  8  7  1  0  0  0  0
  9  8  2  0  0  0  0
  9 10  1  0  0  0  0
 10  5  2  0  0  0  0
 11 10  1  0  0  0  0
 13 12  1  0  0  0  0
 14 13  1  0  0  0  0
 14 15  1  0  0  0  0
 16 13  2  0  0  0  0
 18 17  1  6  0  0  0
 18 22  1  0  0  0  0
 18 19  1  0  0  0  0
 19 20  1  0  0  0  0
 20 21  1  0  0  0  0
 22 21  1  0  0  0  0
 23 18  1  0  0  0  0
 24 23  1  0  0  0  0
 25 23  2  0  0  0  0
M  END
>  <MODEL>
2

>  <REMARK>
  Name = ZINC64610704
                            x       y       z     vdW  Elec       q    Type
                         _______ _______ _______ _____ _____    ______ ____

>  <TORSDO>
F 5

>  <minimizedAffinity>
-7.7143292702587321

$$$$
ZINC64610704
 OpenBabel10211215173D

 25 26  0  0  1  0  0  0  0  0999 V2000
   49.9290   52.2800   17.6350 N   0  0  0  0  0  0  0  0  0  0  0  0
   49.4620   53.0940   17.3900 H   0  0  0  0  0  0  0  0  0  0  0  0
   51.0350   52.3440   18.4030 C   0  0  0  0  0  0  0  0  0  0  0  0
   51.5730   51.3230   18.7760 O   0  0  0  0  0  0  0  0  0  0  0  0
   48.1750   49.0430   17.5600 C   0  0  0  0  0  0  0  0  0  0  0  0
   48.6410   50.2720   18.0060 C   0  0  0  0  0  0  0  0  0  0  0  0
   49.4570   51.0400   17.1880 C   0  0  0  0  0  0  0  0  0  0  0  0
   49.8060   50.5780   15.9250 C   0  0  0  0  0  0  0  0  0  0  0  0
   49.3410   49.3540   15.4830 C   0  0  0  0  0  0  0  0  0  0  0  0
   48.5320   48.5830   16.2980 C   0  0  0  0  0  0  0  0  0  0  0  0
   48.0840   47.3840   15.8650 F   0  0  0  0  0  0  0  0  0  0  0  0
   45.1270   47.4290   19.0700 C   0  0  0  0  0  0  0  0  0  0  0  0
   46.0110   48.3390   18.2580 C   0  0  0  0  0  0  0  0  0  0  0  0
   47.3510   48.2660   18.3830 N   0  0  0  0  0  0  0  0  0  0  0  0
   47.7440   47.6750   19.0440 H   0  0  0  0  0  0  0  0  0  0  0  0
   45.5160   49.1380   17.4900 O   0  0  0  0  0  0  0  0  0  0  0  0
   51.6020   53.6830   18.7990 C   0  0  0  0  0  0  0  0  0  0  0  0
   50.6900   54.3340   19.8410 C   0  0  1  0  0  0  0  0  0  0  0  0
   50.3790   53.3070   20.9280 C   0  0  0  0  0  0  0  0  0  0  0  0
   51.4360   53.3880   22.0650 C   0  0  0  0  0  0  0  0  0  0  0  0
   51.6500   55.2200   22.1550 S   0  0  0  0  0  0  0  0  0  0  0  0
   51.3790   55.6050   20.3750 C   0  0  0  0  0  0  0  0  0  0  0  0
   49.3990   54.7300   19.1710 C   0  0  0  0  0  0  0  0  0  0  0  0
   49.4170   55.4860   18.2140 O   0  0  0  0  0  0  0  0  0  0  0  0
   48.3380   54.2970   19.5860 O   0  0  0  0  0  0  0  0  0  0  0  0
  1  3  1  0  0  0  0
  2  1  1  0  0  0  0
  3  4  2  0  0  0  0
  3 17  1  0  0  0  0
  5  6  1  0  0  0  0
  5 14  1  0  0  0  0
  7  1  1  0  0  0  0
  7  6  2  0  0  0  0
  8  7  1  0  0  0  0
  9  8  2  0  0  0  0
  9 10  1  0  0  0  0
 10  5  2  0  0  0  0
 11 10  1  0  0  0  0
 13 14  1  0  0  0  0
 13 12  1  0  0  0  0
 14 15  1  0  0  0  0
 16 13  2  0  0  0  0
 18 17  1  6  0  0  0
 18 22  1  0  0  0  0
 18 19  1  0  0  0  0
 19 20  1  0  0  0  0
 20 21  1  0  0  0  0
 22 21  1  0  0  0  0
 23 25  1  0  0  0  0
 23 18  1  0  0  0  0
 24 23  2  0  0  0  0
M  END
>  <MODEL>
3

>  <REMARK>
  Name = ZINC64610704
                            x       y       z     vdW  Elec       q    Type
                         _______ _______ _______ _____ _____    ______ ____

>  <TORSDO>
F 5

>  <minimizedAffinity>
-7.6070647020238535

$$$$
ZINC64610704
 OpenBabel10211215173D

 25 26  0  0  1  0  0  0  0  0999 V2000
   50.2360   49.9400   18.0400 N   0  0  0  0  0  0  0  0  0  0  0  0
   50.6540   50.0240   17.1680 H   0  0  0  0  0  0  0  0  0  0  0  0
   49.2080   49.0870   18.2150 C   0  0  0  0  0  0  0  0  0  0  0  0
   48.7380   48.9210   19.3210 O   0  0  0  0  0  0  0  0  0  0  0  0
   50.5940   52.6990   20.4510 C   0  0  0  0  0  0  0  0  0  0  0  0
   50.1310   51.9420   19.3840 C   0  0  0  0  0  0  0  0  0  0  0  0
   50.7010   50.7060   19.1160 C   0  0  0  0  0  0  0  0  0  0  0  0
   51.7320   50.2290   19.9140 C   0  0  0  0  0  0  0  0  0  0  0  0
   52.1920   50.9840   20.9760 C   0  0  0  0  0  0  0  0  0  0  0  0
   51.6300   52.2200   21.2440 C   0  0  0  0  0  0  0  0  0  0  0  0
   52.0860   52.9590   22.2790 F   0  0  0  0  0  0  0  0  0  0  0  0
   49.8030   56.3790   20.3250 C   0  0  0  0  0  0  0  0  0  0  0  0
   50.4850   55.0530   20.1080 C   0  0  0  0  0  0  0  0  0  0  0  0
   50.0210   53.9470   20.7250 N   0  0  0  0  0  0  0  0  0  0  0  0
   49.2910   54.0180   21.3590 H   0  0  0  0  0  0  0  0  0  0  0  0
   51.4510   54.9800   19.3790 O   0  0  0  0  0  0  0  0  0  0  0  0
   48.6410   48.3370   17.0360 C   0  0  0  0  0  0  0  0  0  0  0  0
   47.4660   49.1230   16.4500 C   0  0  1  0  0  0  0  0  0  0  0  0
   47.1340   48.5510   15.0730 C   0  0  0  0  0  0  0  0  0  0  0  0
   46.0800   47.4160   15.1990 C   0  0  0  0  0  0  0  0  0  0  0  0
   44.9930   48.1510   16.4990 S   0  0  0  0  0  0  0  0  0  0  0  0
   46.2880   49.0620   17.4400 C   0  0  0  0  0  0  0  0  0  0  0  0
   47.8840   50.5620   16.2840 C   0  0  0  0  0  0  0  0  0  0  0  0
   47.3920   51.4240   16.9930 O   0  0  0  0  0  0  0  0  0  0  0  0
   48.7100   50.8640   15.4410 O   0  0  0  0  0  0  0  0  0  0  0  0
  1  3  1  0  0  0  0
  1  7  1  0  0  0  0
  2  1  1  0  0  0  0
  3  4  2  0  0  0  0
  5 14  1  0  0  0  0
  5 10  2  0  0  0  0
  6  5  1  0  0  0  0
  7  6  2  0  0  0  0
  7  8  1  0  0  0  0
  8  9  2  0  0  0  0
  9 10  1  0  0  0  0
 10 11  1  0  0  0  0
 13 12  1  0  0  0  0
 13 14  1  0  0  0  0
 14 15  1  0  0  0  0
 16 13  2  0  0  0  0
 17  3  1  0  0  0  0
 18 23  1  6  0  0  0
 18 17  1  0  0  0  0
 18 22  1  0  0  0  0
 19 20  1  0  0  0  0
 19 18  1  0  0  0  0
 20 21  1  0  0  0  0
 21 22  1  0  0  0  0
 23 24  1  0  0  0  0
 25 23  2  0  0  0  0
M  END
>  <MODEL>
4

>  <REMARK>
  Name = ZINC64610704
                            x       y       z     vdW  Elec       q    Type
                         _______ _______ _______ _____ _____    ______ ____

>  <TORSDO>
F 5

>  <minimizedAffinity>
-7.4733734941546466

$$$$
ZINC64610704
 OpenBabel10211215173D

 25 26  0  0  1  0  0  0  0  0999 V2000
   49.9020   52.7930   19.3640 N   0  0  0  0  0  0  0  0  0  0  0  0
   49.3820   52.7810   20.1830 H   0  0  0  0  0  0  0  0  0  0  0  0
   51.1040   53.4020   19.3390 C   0  0  0  0  0  0  0  0  0  0  0  0
   51.7910   53.3470   18.3410 O   0  0  0  0  0  0  0  0  0  0  0  0
   49.1660   50.2270   16.8270 C   0  0  0  0  0  0  0  0  0  0  0  0
   49.6610   50.8340   17.9730 C   0  0  0  0  0  0  0  0  0  0  0  0
   49.4050   52.1770   18.2090 C   0  0  0  0  0  0  0  0  0  0  0  0
   48.6550   52.9110   17.2990 C   0  0  0  0  0  0  0  0  0  0  0  0
   48.1630   52.3050   16.1590 C   0  0  0  0  0  0  0  0  0  0  0  0
   48.4210   50.9680   15.9170 C   0  0  0  0  0  0  0  0  0  0  0  0
   47.9440   50.3800   14.7980 F   0  0  0  0  0  0  0  0  0  0  0  0
   48.7850   46.4840   16.6860 C   0  0  0  0  0  0  0  0  0  0  0  0
   48.5640   47.9330   17.0330 C   0  0  0  0  0  0  0  0  0  0  0  0
   49.4220   48.8720   16.5860 N   0  0  0  0  0  0  0  0  0  0  0  0
   50.2170   48.6070   16.0980 H   0  0  0  0  0  0  0  0  0  0  0  0
   47.6140   48.2560   17.7150 O   0  0  0  0  0  0  0  0  0  0  0  0
   51.5950   54.1520   20.5510 C   0  0  0  0  0  0  0  0  0  0  0  0
   51.1870   55.6230   20.4400 C   0  0  1  0  0  0  0  0  0  0  0  0
   51.0490   56.1990   21.8480 C   0  0  0  0  0  0  0  0  0  0  0  0
   52.4040   56.7960   22.3220 C   0  0  0  0  0  0  0  0  0  0  0  0
   52.9650   57.5750   20.7440 S   0  0  0  0  0  0  0  0  0  0  0  0
   52.2260   56.3600   19.5740 C   0  0  0  0  0  0  0  0  0  0  0  0
   49.8460   55.7010   19.7560 C   0  0  0  0  0  0  0  0  0  0  0  0
   48.8300   55.4290   20.3740 O   0  0  0  0  0  0  0  0  0  0  0  0
   49.7760   56.0330   18.5850 O   0  0  0  0  0  0  0  0  0  0  0  0
  1  2  1  0  0  0  0
  3  1  1  0  0  0  0
  3 17  1  0  0  0  0
  4  3  2  0  0  0  0
  5  6  2  0  0  0  0
  6  7  1  0  0  0  0
  7  1  1  0  0  0  0
  8  7  2  0  0  0  0
  9  8  1  0  0  0  0
 10  9  2  0  0  0  0
 10  5  1  0  0  0  0
 11 10  1  0  0  0  0
 12 13  1  0  0  0  0
 13 16  2  0  0  0  0
 14  5  1  0  0  0  0
 14 13  1  0  0  0  0
 15 14  1  0  0  0  0
 18 23  1  6  0  0  0
 18 17  1  0  0  0  0
 18 19  1  0  0  0  0
 19 20  1  0  0  0  0
 21 20  1  0  0  0  0
 22 18  1  0  0  0  0
 22 21  1  0  0  0  0
 23 24  1  0  0  0  0
 25 23  2  0  0  0  0
M  END
>  <MODEL>
5

>  <REMARK>
  Name = ZINC64610704
                            x       y       z     vdW  Elec       q    Type
                         _______ _______ _______ _____ _____    ______ ____

>  <TORSDO>
F 5

>  <minimizedAffinity>
-7.2717856337539022

$$$$
ZINC64610704
 OpenBabel10211215173D

 25 26  0  0  1  0  0  0  0  0999 V2000
   50.3490   49.5860   18.2780 N   0  0  0  0  0  0  0  0  0  0  0  0
   50.8640   49.4650   17.4650 H   0  0  0  0  0  0  0  0  0  0  0  0
   49.2140   48.8830   18.4660 C   0  0  0  0  0  0  0  0  0  0  0  0
   48.6130   48.9730   19.5160 O   0  0  0  0  0  0  0  0  0  0  0  0
   50.7250   52.6820   20.2350 C   0  0  0  0  0  0  0  0  0  0  0  0
   50.2920   51.7880   19.2660 C   0  0  0  0  0  0  0  0  0  0  0  0
   50.7830   50.4900   19.2550 C   0  0  0  0  0  0  0  0  0  0  0  0
   51.7050   50.0890   20.2130 C   0  0  0  0  0  0  0  0  0  0  0  0
   52.1340   50.9800   21.1770 C   0  0  0  0  0  0  0  0  0  0  0  0
   51.6520   52.2770   21.1880 C   0  0  0  0  0  0  0  0  0  0  0  0
   52.0780   53.1470   22.1290 F   0  0  0  0  0  0  0  0  0  0  0  0
   50.2180   56.3240   19.4220 C   0  0  0  0  0  0  0  0  0  0  0  0
   50.8110   54.9400   19.4860 C   0  0  0  0  0  0  0  0  0  0  0  0
   50.2310   53.9920   20.2500 N   0  0  0  0  0  0  0  0  0  0  0  0
   49.4730   54.2190   20.8090 H   0  0  0  0  0  0  0  0  0  0  0  0
   51.8100   54.6780   18.8490 O   0  0  0  0  0  0  0  0  0  0  0  0
   48.6920   47.9860   17.3730 C   0  0  0  0  0  0  0  0  0  0  0  0
   47.5290   48.6780   16.6590 C   0  0  1  0  0  0  0  0  0  0  0  0
   47.7670   50.1860   16.6850 C   0  0  0  0  0  0  0  0  0  0  0  0
   48.5670   50.6280   15.4280 C   0  0  0  0  0  0  0  0  0  0  0  0
   47.7660   49.5500   14.1590 S   0  0  0  0  0  0  0  0  0  0  0  0
   47.4090   48.0990   15.2360 C   0  0  0  0  0  0  0  0  0  0  0  0
   46.2570   48.3790   17.4100 C   0  0  0  0  0  0  0  0  0  0  0  0
   46.0550   47.2570   17.8450 O   0  0  0  0  0  0  0  0  0  0  0  0
   45.4290   49.2570   17.5820 O   0  0  0  0  0  0  0  0  0  0  0  0
  1  3  1  0  0  0  0
  1  7  1  0  0  0  0
  2  1  1  0  0  0  0
  3  4  2  0  0  0  0
  5 14  1  0  0  0  0
  5 10  2  0  0  0  0
  6  5  1  0  0  0  0
  7  6  2  0  0  0  0
  7  8  1  0  0  0  0
  8  9  2  0  0  0  0
  9 10  1  0  0  0  0
 10 11  1  0  0  0  0
 12 13  1  0  0  0  0
 13 14  1  0  0  0  0
 14 15  1  0  0  0  0
 16 13  2  0  0  0  0
 17  3  1  0  0  0  0
 18 19  1  0  0  0  0
 18 17  1  1  0  0  0
 18 23  1  0  0  0  0
 20 19  1  0  0  0  0
 21 22  1  0  0  0  0
 21 20  1  0  0  0  0
 22 18  1  0  0  0  0
 23 25  2  0  0  0  0
 23 24  1  0  0  0  0
M  END
>  <MODEL>
6

>  <REMARK>
  Name = ZINC64610704
                            x       y       z     vdW  Elec       q    Type
                         _______ _______ _______ _____ _____    ______ ____

>  <TORSDO>
F 5

>  <minimizedAffinity>
-7.2573373663050633

$$$$
ZINC64610704
 OpenBabel10211215173D

 25 26  0  0  1  0  0  0  0  0999 V2000
   49.9820   49.2300   17.8210 N   0  0  0  0  0  0  0  0  0  0  0  0
   50.7630   48.6620   17.9210 H   0  0  0  0  0  0  0  0  0  0  0  0
   50.1330   50.5570   17.6420 C   0  0  0  0  0  0  0  0  0  0  0  0
   49.1630   51.2550   17.4360 O   0  0  0  0  0  0  0  0  0  0  0  0
   46.9140   47.4710   16.7980 C   0  0  0  0  0  0  0  0  0  0  0  0
   48.1860   48.0240   16.7510 C   0  0  0  0  0  0  0  0  0  0  0  0
   48.6990   48.6710   17.8650 C   0  0  0  0  0  0  0  0  0  0  0  0
   47.9410   48.7620   19.0250 C   0  0  0  0  0  0  0  0  0  0  0  0
   46.6750   48.2110   19.0710 C   0  0  0  0  0  0  0  0  0  0  0  0
   46.1570   47.5700   17.9590 C   0  0  0  0  0  0  0  0  0  0  0  0
   44.9160   47.0370   18.0050 F   0  0  0  0  0  0  0  0  0  0  0  0
   45.3300   46.8390   13.4400 C   0  0  0  0  0  0  0  0  0  0  0  0
   45.8000   47.5290   14.6940 C   0  0  0  0  0  0  0  0  0  0  0  0
   46.3920   46.8170   15.6750 N   0  0  0  0  0  0  0  0  0  0  0  0
   46.4560   45.8530   15.6010 H   0  0  0  0  0  0  0  0  0  0  0  0
   45.6450   48.7260   14.8230 O   0  0  0  0  0  0  0  0  0  0  0  0
   51.5070   51.1740   17.6960 C   0  0  0  0  0  0  0  0  0  0  0  0
   51.7830   51.6800   19.1140 C   0  0  1  0  0  0  0  0  0  0  0  0
   52.5650   52.9890   19.0210 C   0  0  0  0  0  0  0  0  0  0  0  0
   51.5900   54.1980   18.9710 C   0  0  0  0  0  0  0  0  0  0  0  0
   50.3280   53.6250   20.1920 S   0  0  0  0  0  0  0  0  0  0  0  0
   50.4420   51.8170   19.8590 C   0  0  0  0  0  0  0  0  0  0  0  0
   52.6320   50.6630   19.8310 C   0  0  0  0  0  0  0  0  0  0  0  0
   53.1400   49.7450   19.2090 O   0  0  0  0  0  0  0  0  0  0  0  0
   52.8100   50.7550   21.0340 O   0  0  0  0  0  0  0  0  0  0  0  0
  1  7  1  0  0  0  0
  1  2  1  0  0  0  0
  3 17  1  0  0  0  0
  3  1  1  0  0  0  0
  4  3  2  0  0  0  0
  5 10  1  0  0  0  0
  6  5  2  0  0  0  0
  6  7  1  0  0  0  0
  7  8  2  0  0  0  0
  8  9  1  0  0  0  0
 10 11  1  0  0  0  0
 10  9  2  0  0  0  0
 12 13  1  0  0  0  0
 13 16  2  0  0  0  0
 13 14  1  0  0  0  0
 14  5  1  0  0  0  0
 15 14  1  0  0  0  0
 18 17  1  6  0  0  0
 18 23  1  0  0  0  0
 18 22  1  0  0  0  0
 19 18  1  0  0  0  0
 20 19  1  0  0  0  0
 20 21  1  0  0  0  0
 22 21  1  0  0  0  0
 23 25  1  0  0  0  0
 24 23  2  0  0  0  0
M  END
>  <MODEL>
7

>  <REMARK>
  Name = ZINC64610704
                            x       y       z     vdW  Elec       q    Type
                         _______ _______ _______ _____ _____    ______ ____

>  <TORSDO>
F 5

>  <minimizedAffinity>
-7.2443001674575491

$$$$
ZINC64610704
 OpenBabel10211215173D

 25 26  0  0  1  0  0  0  0  0999 V2000
   49.2060   51.9210   18.7020 N   0  0  0  0  0  0  0  0  0  0  0  0
   49.0130   51.1700   19.2850 H   0  0  0  0  0  0  0  0  0  0  0  0
   48.5630   52.0400   17.5230 C   0  0  0  0  0  0  0  0  0  0  0  0
   48.7430   53.0200   16.8310 O   0  0  0  0  0  0  0  0  0  0  0  0
   50.7400   54.8370   20.3460 C   0  0  0  0  0  0  0  0  0  0  0  0
   49.8000   53.8880   19.9700 C   0  0  0  0  0  0  0  0  0  0  0  0
   50.1520   52.8800   19.0840 C   0  0  0  0  0  0  0  0  0  0  0  0
   51.4430   52.8220   18.5770 C   0  0  0  0  0  0  0  0  0  0  0  0
   52.3780   53.7670   18.9520 C   0  0  0  0  0  0  0  0  0  0  0  0
   52.0300   54.7770   19.8310 C   0  0  0  0  0  0  0  0  0  0  0  0
   52.9440   55.7040   20.1920 F   0  0  0  0  0  0  0  0  0  0  0  0
   49.2030   57.9560   21.7900 C   0  0  0  0  0  0  0  0  0  0  0  0
   49.6690   56.9120   20.8090 C   0  0  0  0  0  0  0  0  0  0  0  0
   50.3880   55.8560   21.2400 N   0  0  0  0  0  0  0  0  0  0  0  0
   50.6610   55.8030   22.1680 H   0  0  0  0  0  0  0  0  0  0  0  0
   49.3970   57.0220   19.6320 O   0  0  0  0  0  0  0  0  0  0  0  0
   47.6210   50.9560   17.0650 C   0  0  0  0  0  0  0  0  0  0  0  0
   48.4270   49.7320   16.6270 C   0  0  1  0  0  0  0  0  0  0  0  0
   47.7620   49.1260   15.3920 C   0  0  0  0  0  0  0  0  0  0  0  0
   48.3530   49.7550   14.0980 C   0  0  0  0  0  0  0  0  0  0  0  0
   50.1300   49.8570   14.5900 S   0  0  0  0  0  0  0  0  0  0  0  0
   49.8880   50.1610   16.3910 C   0  0  0  0  0  0  0  0  0  0  0  0
   48.3960   48.7130   17.7370 C   0  0  0  0  0  0  0  0  0  0  0  0
   47.9600   49.0200   18.8340 O   0  0  0  0  0  0  0  0  0  0  0  0
   48.8090   47.5830   17.5390 O   0  0  0  0  0  0  0  0  0  0  0  0
  1  7  1  0  0  0  0
  1  2  1  0  0  0  0
  3  1  1  0  0  0  0
  4  3  2  0  0  0  0
  5 14  1  0  0  0  0
  6  5  1  0  0  0  0
  7  6  2  0  0  0  0
  8  9  2  0  0  0  0
  8  7  1  0  0  0  0
  9 10  1  0  0  0  0
 10 11  1  0  0  0  0
 10  5  2  0  0  0  0
 13 14  1  0  0  0  0
 13 12  1  0  0  0  0
 14 15  1  0  0  0  0
 16 13  2  0  0  0  0
 17  3  1  0  0  0  0
 18 17  1  1  0  0  0
 18 23  1  0  0  0  0
 19 18  1  0  0  0  0
 20 21  1  0  0  0  0
 20 19  1  0  0  0  0
 21 22  1  0  0  0  0
 22 18  1  0  0  0  0
 23 24  1  0  0  0  0
 25 23  2  0  0  0  0
M  END
>  <MODEL>
8

>  <REMARK>
  Name = ZINC64610704
                            x       y       z     vdW  Elec       q    Type
                         _______ _______ _______ _____ _____    ______ ____

>  <TORSDO>
F 5

>  <minimizedAffinity>
-7.2253896083597304

$$$$
ZINC64610704
 OpenBabel10211215173D

 25 26  0  0  1  0  0  0  0  0999 V2000
   49.7960   50.0450   17.4510 N   0  0  0  0  0  0  0  0  0  0  0  0
   50.2080   49.3350   16.9340 H   0  0  0  0  0  0  0  0  0  0  0  0
   48.6240   50.5760   17.0500 C   0  0  0  0  0  0  0  0  0  0  0  0
   48.0680   51.4070   17.7380 O   0  0  0  0  0  0  0  0  0  0  0  0
   51.7060   52.2040   19.7420 C   0  0  0  0  0  0  0  0  0  0  0  0
   51.0880   51.7370   18.5910 C   0  0  0  0  0  0  0  0  0  0  0  0
   50.4200   50.5200   18.6110 C   0  0  0  0  0  0  0  0  0  0  0  0
   50.3710   49.7750   19.7810 C   0  0  0  0  0  0  0  0  0  0  0  0
   50.9860   50.2420   20.9260 C   0  0  0  0  0  0  0  0  0  0  0  0
   51.6580   51.4510   20.9100 C   0  0  0  0  0  0  0  0  0  0  0  0
   52.2640   51.9030   22.0300 F   0  0  0  0  0  0  0  0  0  0  0  0
   52.5040   55.8550   20.2080 C   0  0  0  0  0  0  0  0  0  0  0  0
   51.7490   54.5530   20.1270 C   0  0  0  0  0  0  0  0  0  0  0  0
   52.3800   53.4310   19.7260 N   0  0  0  0  0  0  0  0  0  0  0  0
   53.3010   53.4750   19.4270 H   0  0  0  0  0  0  0  0  0  0  0  0
   50.5730   54.5150   20.4230 O   0  0  0  0  0  0  0  0  0  0  0  0
   48.0030   50.1370   15.7490 C   0  0  0  0  0  0  0  0  0  0  0  0
   47.5390   48.6840   15.8700 C   0  0  1  0  0  0  0  0  0  0  0  0
   46.7300   48.5350   17.1570 C   0  0  0  0  0  0  0  0  0  0  0  0
   45.2250   48.8050   16.8830 C   0  0  0  0  0  0  0  0  0  0  0  0
   45.0560   47.9710   15.2440 S   0  0  0  0  0  0  0  0  0  0  0  0
   46.7490   48.3110   14.6010 C   0  0  0  0  0  0  0  0  0  0  0  0
   48.7540   47.7970   15.9600 C   0  0  0  0  0  0  0  0  0  0  0  0
   49.6880   47.9630   15.1930 O   0  0  0  0  0  0  0  0  0  0  0  0
   48.8030   46.9130   16.7970 O   0  0  0  0  0  0  0  0  0  0  0  0
  1  7  1  0  0  0  0
  2  1  1  0  0  0  0
  3  1  1  0  0  0  0
  3  4  2  0  0  0  0
  5 10  2  0  0  0  0
  6  7  2  0  0  0  0
  6  5  1  0  0  0  0
  7  8  1  0  0  0  0
  8  9  2  0  0  0  0
 10  9  1  0  0  0  0
 10 11  1  0  0  0  0
 13 12  1  0  0  0  0
 13 16  2  0  0  0  0
 14  5  1  0  0  0  0
 14 13  1  0  0  0  0
 15 14  1  0  0  0  0
 17  3  1  0  0  0  0
 18 17  1  6  0  0  0
 18 23  1  0  0  0  0
 18 19  1  0  0  0  0
 20 19  1  0  0  0  0
 21 20  1  0  0  0  0
 22 21  1  0  0  0  0
 22 18  1  0  0  0  0
 23 25  1  0  0  0  0
 24 23  2  0  0  0  0
M  END
>  <MODEL>
9

>  <REMARK>
  Name = ZINC64610704
                            x       y       z     vdW  Elec       q    Type
                         _______ _______ _______ _____ _____    ______ ____

>  <TORSDO>
F 5

>  <minimizedAffinity>
-7.1869843842804917

$$$$
ZINC49928603
 OpenBabel10211215183D

 26 28  0  0  1  0  0  0  0  0999 V2000
   52.9020   51.4320   20.2140 N   0  0  0  0  0  0  0  0  0  0  0  0
   53.7310   51.2390   20.6780 H   0  0  0  0  0  0  0  0  0  0  0  0
   50.9800   55.0810   20.8170 C   0  0  0  0  0  0  0  0  0  0  0  0
   51.0510   54.1550   21.8500 C   0  0  0  0  0  0  0  0  0  0  0  0
   51.6880   52.9460   21.6500 C   0  0  0  0  0  0  0  0  0  0  0  0
   52.2570   52.6560   20.4160 C   0  0  0  0  0  0  0  0  0  0  0  0
   52.1850   53.5830   19.3840 C   0  0  0  0  0  0  0  0  0  0  0  0
   51.5440   54.7890   19.5830 C   0  0  0  0  0  0  0  0  0  0  0  0
   48.3190   57.7420   20.9710 C   0  0  0  0  0  0  0  0  0  0  0  0
   49.0440   56.4590   20.6590 C   0  0  0  0  0  0  0  0  0  0  0  0
   50.3340   56.3080   21.0200 N   0  0  0  0  0  0  0  0  0  0  0  0
   50.8150   57.0490   21.4220 H   0  0  0  0  0  0  0  0  0  0  0  0
   48.4680   55.5610   20.0810 O   0  0  0  0  0  0  0  0  0  0  0  0
   52.3240   50.4420   19.3010 C   0  0  0  0  0  0  0  0  0  0  0  0
   51.1770   49.7120   20.0000 C   0  0  1  0  0  0  0  0  0  0  0  0
   49.9260   49.8270   19.1670 C   0  0  0  0  0  0  0  0  0  0  0  0
   49.7480   50.9180   18.3370 C   0  0  0  0  0  0  0  0  0  0  0  0
   48.6020   51.0290   17.5720 C   0  0  0  0  0  0  0  0  0  0  0  0
   47.6280   50.0450   17.6360 C   0  0  0  0  0  0  0  0  0  0  0  0
   47.8080   48.9450   18.4710 C   0  0  0  0  0  0  0  0  0  0  0  0
   46.7200   48.1280   18.3560 O   0  0  0  0  0  0  0  0  0  0  0  0
   45.6930   48.9370   17.7540 C   0  0  0  0  0  0  0  0  0  0  0  0
   46.4290   49.9160   16.9960 O   0  0  0  0  0  0  0  0  0  0  0  0
   48.9610   48.8390   19.2320 C   0  0  0  0  0  0  0  0  0  0  0  0
   51.5170   48.3330   20.1600 O   0  0  0  0  0  0  0  0  0  0  0  0
   51.5020   47.8260   19.3370 H   0  0  0  0  0  0  0  0  0  0  0  0
  1  6  1  0  0  0  0
  1  2  1  0  0  0  0
  3 11  1  0  0  0  0
  3  4  2  0  0  0  0
  5  4  1  0  0  0  0
  6  5  2  0  0  0  0
  7  8  2  0  0  0  0
  7  6  1  0  0  0  0
  8  3  1  0  0  0  0
 10  9  1  0  0  0  0
 10 11  1  0  0  0  0
 11 12  1  0  0  0  0
 13 10  2  0  0  0  0
 14 15  1  0  0  0  0
 14  1  1  0  0  0  0
 15 16  1  6  0  0  0
 15 25  1  0  0  0  0
 16 24  1  0  0  0  0
 17 16  2  0  0  0  0
 18 19  2  0  0  0  0
 18 17  1  0  0  0  0
 19 20  1  0  0  0  0
 20 24  2  0  0  0  0
 21 20  1  0  0  0  0
 22 21  1  0  0  0  0
 23 19  1  0  0  0  0
 23 22  1  0  0  0  0
 26 25  1  0  0  0  0
M  END
>  <MODEL>
1

>  <REMARK>
  Name = ZINC49928603
                            x       y       z     vdW  Elec       q    Type
                         _______ _______ _______ _____ _____    ______ ____

>  <TORSDO>
F 6

>  <minimizedAffinity>
-8.2632772408310817

$$$$
ZINC49928603
 OpenBabel10211215183D

 26 28  0  0  1  0  0  0  0  0999 V2000
   50.3830   50.9670   18.6370 N   0  0  0  0  0  0  0  0  0  0  0  0
   50.9340   51.4290   17.9860 H   0  0  0  0  0  0  0  0  0  0  0  0
   46.7020   49.3800   17.4950 C   0  0  0  0  0  0  0  0  0  0  0  0
   47.0990   50.6240   17.0210 C   0  0  0  0  0  0  0  0  0  0  0  0
   48.3180   51.1500   17.4000 C   0  0  0  0  0  0  0  0  0  0  0  0
   49.1480   50.4350   18.2540 C   0  0  0  0  0  0  0  0  0  0  0  0
   48.7500   49.1910   18.7270 C   0  0  0  0  0  0  0  0  0  0  0  0
   47.5290   48.6680   18.3520 C   0  0  0  0  0  0  0  0  0  0  0  0
   44.0700   47.4020   15.6650 C   0  0  0  0  0  0  0  0  0  0  0  0
   45.3780   48.0600   16.0190 C   0  0  0  0  0  0  0  0  0  0  0  0
   45.4640   48.8470   17.1100 N   0  0  0  0  0  0  0  0  0  0  0  0
   44.6690   49.0430   17.6300 H   0  0  0  0  0  0  0  0  0  0  0  0
   46.3550   47.8830   15.3220 O   0  0  0  0  0  0  0  0  0  0  0  0
   50.8430   50.8280   20.0210 C   0  0  0  0  0  0  0  0  0  0  0  0
   52.2140   51.4890   20.1720 C   0  0  1  0  0  0  0  0  0  0  0  0
   52.0400   52.8950   20.6860 C   0  0  0  0  0  0  0  0  0  0  0  0
   51.6860   53.1090   22.0050 C   0  0  0  0  0  0  0  0  0  0  0  0
   51.5240   54.3960   22.4820 C   0  0  0  0  0  0  0  0  0  0  0  0
   51.7170   55.4770   21.6360 C   0  0  0  0  0  0  0  0  0  0  0  0
   52.0730   55.2630   20.3070 C   0  0  0  0  0  0  0  0  0  0  0  0
   52.2010   56.4730   19.6890 O   0  0  0  0  0  0  0  0  0  0  0  0
   51.5240   57.4140   20.5410 C   0  0  0  0  0  0  0  0  0  0  0  0
   51.6220   56.8220   21.8510 O   0  0  0  0  0  0  0  0  0  0  0  0
   52.2380   53.9690   19.8380 C   0  0  0  0  0  0  0  0  0  0  0  0
   53.0060   50.7400   21.0960 O   0  0  0  0  0  0  0  0  0  0  0  0
   53.8410   50.4200   20.7290 H   0  0  0  0  0  0  0  0  0  0  0  0
  1 14  1  0  0  0  0
  2  1  1  0  0  0  0
  3  8  2  0  0  0  0
  4  5  2  0  0  0  0
  4  3  1  0  0  0  0
  5  6  1  0  0  0  0
  6  1  1  0  0  0  0
  6  7  2  0  0  0  0
  8  7  1  0  0  0  0
  9 10  1  0  0  0  0
 10 11  1  0  0  0  0
 11  3  1  0  0  0  0
 11 12  1  0  0  0  0
 13 10  2  0  0  0  0
 15 14  1  1  0  0  0
 15 16  1  0  0  0  0
 15 25  1  0  0  0  0
 16 17  2  0  0  0  0
 17 18  1  0  0  0  0
 19 23  1  0  0  0  0
 19 18  2  0  0  0  0
 20 19  1  0  0  0  0
 21 20  1  0  0  0  0
 21 22  1  0  0  0  0
 22 23  1  0  0  0  0
 24 20  2  0  0  0  0
 24 16  1  0  0  0  0
 26 25  1  0  0  0  0
M  END
>  <MODEL>
2

>  <REMARK>
  Name = ZINC49928603
                            x       y       z     vdW  Elec       q    Type
                         _______ _______ _______ _____ _____    ______ ____

>  <TORSDO>
F 6

>  <minimizedAffinity>
-8.194213426608183

$$$$
ZINC49928603
 OpenBabel10211215183D

 26 28  0  0  1  0  0  0  0  0999 V2000
   51.2240   51.8300   18.0000 N   0  0  0  0  0  0  0  0  0  0  0  0
   52.1810   51.9230   17.8680 H   0  0  0  0  0  0  0  0  0  0  0  0
   49.0620   54.9010   19.8050 C   0  0  0  0  0  0  0  0  0  0  0  0
   50.0760   54.2620   20.5060 C   0  0  0  0  0  0  0  0  0  0  0  0
   50.7920   53.2440   19.9070 C   0  0  0  0  0  0  0  0  0  0  0  0
   50.4990   52.8600   18.6050 C   0  0  0  0  0  0  0  0  0  0  0  0
   49.4840   53.5010   17.9050 C   0  0  0  0  0  0  0  0  0  0  0  0
   48.7650   54.5150   18.5050 C   0  0  0  0  0  0  0  0  0  0  0  0
   48.0130   58.3150   21.0050 C   0  0  0  0  0  0  0  0  0  0  0  0
   48.8380   57.1840   20.4460 C   0  0  0  0  0  0  0  0  0  0  0  0
   48.3340   55.9340   20.4120 N   0  0  0  0  0  0  0  0  0  0  0  0
   47.4680   55.7500   20.8070 H   0  0  0  0  0  0  0  0  0  0  0  0
   49.9560   57.3980   20.0270 O   0  0  0  0  0  0  0  0  0  0  0  0
   50.5400   50.6100   17.5640 C   0  0  0  0  0  0  0  0  0  0  0  0
   49.8070   49.9840   18.7520 C   0  0  1  0  0  0  0  0  0  0  0  0
   48.3920   49.6550   18.3530 C   0  0  0  0  0  0  0  0  0  0  0  0
   47.7380   50.4370   17.4190 C   0  0  0  0  0  0  0  0  0  0  0  0
   46.4400   50.1400   17.0500 C   0  0  0  0  0  0  0  0  0  0  0  0
   45.7900   49.0550   17.6170 C   0  0  0  0  0  0  0  0  0  0  0  0
   46.4480   48.2660   18.5570 C   0  0  0  0  0  0  0  0  0  0  0  0
   45.6030   47.2730   18.9600 O   0  0  0  0  0  0  0  0  0  0  0  0
   44.2880   47.7010   18.5640 C   0  0  0  0  0  0  0  0  0  0  0  0
   44.5330   48.5550   17.4300 O   0  0  0  0  0  0  0  0  0  0  0  0
   47.7510   48.5690   18.9180 C   0  0  0  0  0  0  0  0  0  0  0  0
   50.4800   48.7880   19.1500 O   0  0  0  0  0  0  0  0  0  0  0  0
   50.1920   47.9970   18.6750 H   0  0  0  0  0  0  0  0  0  0  0  0
  1  6  1  0  0  0  0
  2  1  1  0  0  0  0
  3 11  1  0  0  0  0
  3  4  2  0  0  0  0
  5  4  1  0  0  0  0
  6  5  2  0  0  0  0
  7  8  2  0  0  0  0
  7  6  1  0  0  0  0
  8  3  1  0  0  0  0
 10  9  1  0  0  0  0
 11 10  1  0  0  0  0
 11 12  1  0  0  0  0
 13 10  2  0  0  0  0
 14  1  1  0  0  0  0
 15 14  1  6  0  0  0
 15 25  1  0  0  0  0
 16 15  1  0  0  0  0
 16 24  2  0  0  0  0
 17 16  1  0  0  0  0
 18 17  2  0  0  0  0
 18 19  1  0  0  0  0
 19 20  2  0  0  0  0
 20 24  1  0  0  0  0
 20 21  1  0  0  0  0
 22 21  1  0  0  0  0
 23 19  1  0  0  0  0
 23 22  1  0  0  0  0
 26 25  1  0  0  0  0
M  END
>  <MODEL>
3

>  <REMARK>
  Name = ZINC49928603
                            x       y       z     vdW  Elec       q    Type
                         _______ _______ _______ _____ _____    ______ ____

>  <TORSDO>
F 6

>  <minimizedAffinity>
-8.1774570531937716

$$$$
ZINC49928603
 OpenBabel10211215183D

 26 28  0  0  1  0  0  0  0  0999 V2000
   52.1370   51.1850   20.8900 N   0  0  0  0  0  0  0  0  0  0  0  0
   52.9980   50.7730   20.7180 H   0  0  0  0  0  0  0  0  0  0  0  0
   51.7980   55.3380   20.9850 C   0  0  0  0  0  0  0  0  0  0  0  0
   51.4810   54.5900   22.1110 C   0  0  0  0  0  0  0  0  0  0  0  0
   51.5930   53.2150   22.0790 C   0  0  0  0  0  0  0  0  0  0  0  0
   52.0230   52.5790   20.9220 C   0  0  0  0  0  0  0  0  0  0  0  0
   52.3400   53.3280   19.7950 C   0  0  0  0  0  0  0  0  0  0  0  0
   52.2230   54.7030   19.8260 C   0  0  0  0  0  0  0  0  0  0  0  0
   52.6050   58.9850   21.4710 C   0  0  0  0  0  0  0  0  0  0  0  0
   52.6810   57.4810   21.5310 C   0  0  0  0  0  0  0  0  0  0  0  0
   51.6840   56.7350   21.0170 N   0  0  0  0  0  0  0  0  0  0  0  0
   50.8870   57.1650   20.6680 H   0  0  0  0  0  0  0  0  0  0  0  0
   53.6400   56.9420   22.0430 O   0  0  0  0  0  0  0  0  0  0  0  0
   50.9550   50.3490   21.1140 C   0  0  0  0  0  0  0  0  0  0  0  0
   50.8870   49.2640   20.0370 C   0  0  1  0  0  0  0  0  0  0  0  0
   49.7060   49.5240   19.1370 C   0  0  0  0  0  0  0  0  0  0  0  0
   49.7380   50.5800   18.2460 C   0  0  0  0  0  0  0  0  0  0  0  0
   48.6570   50.8240   17.4180 C   0  0  0  0  0  0  0  0  0  0  0  0
   47.5400   50.0070   17.4800 C   0  0  0  0  0  0  0  0  0  0  0  0
   47.5080   48.9420   18.3770 C   0  0  0  0  0  0  0  0  0  0  0  0
   46.3120   48.2980   18.2470 O   0  0  0  0  0  0  0  0  0  0  0  0
   45.4510   49.2200   17.5540 C   0  0  0  0  0  0  0  0  0  0  0  0
   46.3630   50.0290   16.7870 O   0  0  0  0  0  0  0  0  0  0  0  0
   48.5970   48.7030   19.2000 C   0  0  0  0  0  0  0  0  0  0  0  0
   52.0880   49.2840   19.2640 O   0  0  0  0  0  0  0  0  0  0  0  0
   52.3840   50.1710   19.0190 H   0  0  0  0  0  0  0  0  0  0  0  0
  1  6  1  0  0  0  0
  1 14  1  0  0  0  0
  2  1  1  0  0  0  0
  3 11  1  0  0  0  0
  3  4  2  0  0  0  0
  5  4  1  0  0  0  0
  6  5  2  0  0  0  0
  7  8  2  0  0  0  0
  7  6  1  0  0  0  0
  8  3  1  0  0  0  0
  9 10  1  0  0  0  0
 10 13  2  0  0  0  0
 11 10  1  0  0  0  0
 12 11  1  0  0  0  0
 15 16  1  6  0  0  0
 15 14  1  0  0  0  0
 16 24  1  0  0  0  0
 17 16  2  0  0  0  0
 18 19  2  0  0  0  0
 18 17  1  0  0  0  0
 19 20  1  0  0  0  0
 20 24  2  0  0  0  0
 21 20  1  0  0  0  0
 22 21  1  0  0  0  0
 23 19  1  0  0  0  0
 23 22  1  0  0  0  0
 25 15  1  0  0  0  0
 26 25  1  0  0  0  0
M  END
>  <MODEL>
4

>  <REMARK>
  Name = ZINC49928603
                            x       y       z     vdW  Elec       q    Type
                         _______ _______ _______ _____ _____    ______ ____

>  <TORSDO>
F 6

>  <minimizedAffinity>
-8.0396155417129869

$$$$
ZINC49928603
 OpenBabel10211215183D

 26 28  0  0  1  0  0  0  0  0999 V2000
   52.1540   52.3570   21.2510 N   0  0  0  0  0  0  0  0  0  0  0  0
   53.1190   52.4450   21.1990 H   0  0  0  0  0  0  0  0  0  0  0  0
   50.2170   49.3690   19.0850 C   0  0  0  0  0  0  0  0  0  0  0  0
   50.4420   49.2050   20.4460 C   0  0  0  0  0  0  0  0  0  0  0  0
   51.0830   50.1950   21.1630 C   0  0  0  0  0  0  0  0  0  0  0  0
   51.5040   51.3540   20.5240 C   0  0  0  0  0  0  0  0  0  0  0  0
   51.2790   51.5180   19.1630 C   0  0  0  0  0  0  0  0  0  0  0  0
   50.6420   50.5260   18.4450 C   0  0  0  0  0  0  0  0  0  0  0  0
   47.6110   47.4940   17.1150 C   0  0  0  0  0  0  0  0  0  0  0  0
   48.2800   48.5260   17.9860 C   0  0  0  0  0  0  0  0  0  0  0  0
   49.5660   48.3640   18.3570 N   0  0  0  0  0  0  0  0  0  0  0  0
   50.0400   47.5520   18.1190 H   0  0  0  0  0  0  0  0  0  0  0  0
   47.6610   49.5020   18.3540 O   0  0  0  0  0  0  0  0  0  0  0  0
   51.3780   53.2730   22.0910 C   0  0  0  0  0  0  0  0  0  0  0  0
   51.7050   54.7170   21.7070 C   0  0  1  0  0  0  0  0  0  0  0  0
   50.4700   55.3840   21.1590 C   0  0  0  0  0  0  0  0  0  0  0  0
   49.6640   54.7100   20.2600 C   0  0  0  0  0  0  0  0  0  0  0  0
   48.5300   55.3170   19.7530 C   0  0  0  0  0  0  0  0  0  0  0  0
   48.1990   56.6040   20.1460 C   0  0  0  0  0  0  0  0  0  0  0  0
   49.0100   57.2830   21.0520 C   0  0  0  0  0  0  0  0  0  0  0  0
   48.4750   58.5180   21.2750 O   0  0  0  0  0  0  0  0  0  0  0  0
   47.5560   58.7420   20.1910 C   0  0  0  0  0  0  0  0  0  0  0  0
   47.1550   57.4140   19.8030 O   0  0  0  0  0  0  0  0  0  0  0  0
   50.1420   56.6650   21.5590 C   0  0  0  0  0  0  0  0  0  0  0  0
   52.1550   55.4270   22.8630 O   0  0  0  0  0  0  0  0  0  0  0  0
   51.5270   55.4210   23.5980 H   0  0  0  0  0  0  0  0  0  0  0  0
  1 14  1  0  0  0  0
  2  1  1  0  0  0  0
  3  4  1  0  0  0  0
  4  5  2  0  0  0  0
  6  5  1  0  0  0  0
  6  1  1  0  0  0  0
  7  6  2  0  0  0  0
  8  3  2  0  0  0  0
  8  7  1  0  0  0  0
  9 10  1  0  0  0  0
 10 13  2  0  0  0  0
 10 11  1  0  0  0  0
 11  3  1  0  0  0  0
 12 11  1  0  0  0  0
 15 16  1  1  0  0  0
 15 14  1  0  0  0  0
 15 25  1  0  0  0  0
 16 24  1  0  0  0  0
 17 16  2  0  0  0  0
 18 19  2  0  0  0  0
 18 17  1  0  0  0  0
 19 20  1  0  0  0  0
 20 21  1  0  0  0  0
 20 24  2  0  0  0  0
 22 21  1  0  0  0  0
 23 19  1  0  0  0  0
 23 22  1  0  0  0  0
 25 26  1  0  0  0  0
M  END
>  <MODEL>
5

>  <REMARK>
  Name = ZINC49928603
                            x       y       z     vdW  Elec       q    Type
                         _______ _______ _______ _____ _____    ______ ____

>  <TORSDO>
F 6

>  <minimizedAffinity>
-8.0352684986453973

$$$$
ZINC49928603
 OpenBabel10211215183D

 26 28  0  0  1  0  0  0  0  0999 V2000
   49.8750   48.9030   18.6300 N   0  0  0  0  0  0  0  0  0  0  0  0
   50.7170   48.4370   18.5070 H   0  0  0  0  0  0  0  0  0  0  0  0
   46.3370   47.2180   17.2090 C   0  0  0  0  0  0  0  0  0  0  0  0
   46.3020   48.1130   18.2700 C   0  0  0  0  0  0  0  0  0  0  0  0
   47.4740   48.6710   18.7400 C   0  0  0  0  0  0  0  0  0  0  0  0
   48.6880   48.3370   18.1530 C   0  0  0  0  0  0  0  0  0  0  0  0
   48.7220   47.4410   17.0930 C   0  0  0  0  0  0  0  0  0  0  0  0
   47.5510   46.8790   16.6260 C   0  0  0  0  0  0  0  0  0  0  0  0
   43.2960   46.5310   15.0950 C   0  0  0  0  0  0  0  0  0  0  0  0
   44.5160   47.1990   15.6740 C   0  0  0  0  0  0  0  0  0  0  0  0
   45.1480   46.6510   16.7310 N   0  0  0  0  0  0  0  0  0  0  0  0
   44.7790   45.8630   17.1610 H   0  0  0  0  0  0  0  0  0  0  0  0
   44.9310   48.2310   15.1890 O   0  0  0  0  0  0  0  0  0  0  0  0
   49.8450   50.1970   19.3160 C   0  0  0  0  0  0  0  0  0  0  0  0
   51.0790   50.3280   20.2110 C   0  0  1  0  0  0  0  0  0  0  0  0
   51.3460   51.7850   20.4900 C   0  0  0  0  0  0  0  0  0  0  0  0
   51.2900   52.2600   21.7870 C   0  0  0  0  0  0  0  0  0  0  0  0
   51.5330   53.5960   22.0480 C   0  0  0  0  0  0  0  0  0  0  0  0
   51.8340   54.4610   21.0090 C   0  0  0  0  0  0  0  0  0  0  0  0
   51.8900   53.9830   19.7020 C   0  0  0  0  0  0  0  0  0  0  0  0
   52.2010   55.0200   18.8710 O   0  0  0  0  0  0  0  0  0  0  0  0
   51.9330   56.2140   19.6280 C   0  0  0  0  0  0  0  0  0  0  0  0
   52.1100   55.7980   20.9960 O   0  0  0  0  0  0  0  0  0  0  0  0
   51.6500   52.6420   19.4490 C   0  0  0  0  0  0  0  0  0  0  0  0
   50.8480   49.6420   21.4430 O   0  0  0  0  0  0  0  0  0  0  0  0
   51.0680   48.7010   21.4170 H   0  0  0  0  0  0  0  0  0  0  0  0
  1 14  1  0  0  0  0
  2  1  1  0  0  0  0
  3  4  2  0  0  0  0
  4  5  1  0  0  0  0
  6  1  1  0  0  0  0
  6  5  2  0  0  0  0
  7  6  1  0  0  0  0
  8  7  2  0  0  0  0
  8  3  1  0  0  0  0
  9 10  1  0  0  0  0
 10 11  1  0  0  0  0
 11 12  1  0  0  0  0
 11  3  1  0  0  0  0
 13 10  2  0  0  0  0
 15 14  1  1  0  0  0
 15 16  1  0  0  0  0
 15 25  1  0  0  0  0
 16 17  2  0  0  0  0
 17 18  1  0  0  0  0
 19 18  2  0  0  0  0
 20 19  1  0  0  0  0
 21 22  1  0  0  0  0
 21 20  1  0  0  0  0
 22 23  1  0  0  0  0
 23 19  1  0  0  0  0
 24 20  2  0  0  0  0
 24 16  1  0  0  0  0
 26 25  1  0  0  0  0
M  END
>  <MODEL>
6

>  <REMARK>
  Name = ZINC49928603
                            x       y       z     vdW  Elec       q    Type
                         _______ _______ _______ _____ _____    ______ ____

>  <TORSDO>
F 6

>  <minimizedAffinity>
-7.9972075492607839

$$$$
ZINC49928603
 OpenBabel10211215183D

 26 28  0  0  1  0  0  0  0  0999 V2000
   51.0530   50.8870   19.8920 N   0  0  0  0  0  0  0  0  0  0  0  0
   51.4700   50.2410   20.4830 H   0  0  0  0  0  0  0  0  0  0  0  0
   47.8630   49.7350   17.4690 C   0  0  0  0  0  0  0  0  0  0  0  0
   48.4470   50.9840   17.3010 C   0  0  0  0  0  0  0  0  0  0  0  0
   49.5030   51.3650   18.1040 C   0  0  0  0  0  0  0  0  0  0  0  0
   49.9820   50.5000   19.0790 C   0  0  0  0  0  0  0  0  0  0  0  0
   49.3980   49.2510   19.2470 C   0  0  0  0  0  0  0  0  0  0  0  0
   48.3390   48.8720   18.4480 C   0  0  0  0  0  0  0  0  0  0  0  0
   45.8600   48.1330   14.7100 C   0  0  0  0  0  0  0  0  0  0  0  0
   47.0190   48.6390   15.5310 C   0  0  0  0  0  0  0  0  0  0  0  0
   46.7910   49.3470   16.6550 N   0  0  0  0  0  0  0  0  0  0  0  0
   45.8830   49.5890   16.8990 H   0  0  0  0  0  0  0  0  0  0  0  0
   48.1570   48.4090   15.1800 O   0  0  0  0  0  0  0  0  0  0  0  0
   51.5420   52.2670   19.8520 C   0  0  0  0  0  0  0  0  0  0  0  0
   51.6900   52.7970   21.2790 C   0  0  1  0  0  0  0  0  0  0  0  0
   51.1170   54.1890   21.3600 C   0  0  0  0  0  0  0  0  0  0  0  0
   51.6860   55.1200   22.2100 C   0  0  0  0  0  0  0  0  0  0  0  0
   51.1640   56.3980   22.2890 C   0  0  0  0  0  0  0  0  0  0  0  0
   50.0690   56.7480   21.5150 C   0  0  0  0  0  0  0  0  0  0  0  0
   49.4960   55.8100   20.6600 C   0  0  0  0  0  0  0  0  0  0  0  0
   48.4430   56.3930   20.0160 O   0  0  0  0  0  0  0  0  0  0  0  0
   48.1240   57.5670   20.7850 C   0  0  0  0  0  0  0  0  0  0  0  0
   49.3740   57.9190   21.4070 O   0  0  0  0  0  0  0  0  0  0  0  0
   50.0280   54.5330   20.5830 C   0  0  0  0  0  0  0  0  0  0  0  0
   50.9870   51.9400   22.1810 O   0  0  0  0  0  0  0  0  0  0  0  0
   51.3260   51.9580   23.0860 H   0  0  0  0  0  0  0  0  0  0  0  0
  1  2  1  0  0  0  0
  3  8  1  0  0  0  0
  4  3  2  0  0  0  0
  4  5  1  0  0  0  0
  5  6  2  0  0  0  0
  6  7  1  0  0  0  0
  6  1  1  0  0  0  0
  8  7  2  0  0  0  0
  9 10  1  0  0  0  0
 10 11  1  0  0  0  0
 11 12  1  0  0  0  0
 11  3  1  0  0  0  0
 13 10  2  0  0  0  0
 14  1  1  0  0  0  0
 15 14  1  6  0  0  0
 15 16  1  0  0  0  0
 15 25  1  0  0  0  0
 16 17  2  0  0  0  0
 17 18  1  0  0  0  0
 19 18  2  0  0  0  0
 20 19  1  0  0  0  0
 21 20  1  0  0  0  0
 21 22  1  0  0  0  0
 22 23  1  0  0  0  0
 23 19  1  0  0  0  0
 24 20  2  0  0  0  0
 24 16  1  0  0  0  0
 25 26  1  0  0  0  0
M  END
>  <MODEL>
7

>  <REMARK>
  Name = ZINC49928603
                            x       y       z     vdW  Elec       q    Type
                         _______ _______ _______ _____ _____    ______ ____

>  <TORSDO>
F 6

>  <minimizedAffinity>
-7.9571634819682853

$$$$
ZINC49928603
 OpenBabel10211215183D

 26 28  0  0  1  0  0  0  0  0999 V2000
   50.1360   51.9100   20.0060 N   0  0  0  0  0  0  0  0  0  0  0  0
   50.0420   51.1700   20.6270 H   0  0  0  0  0  0  0  0  0  0  0  0
   51.1580   55.6960   21.4180 C   0  0  0  0  0  0  0  0  0  0  0  0
   51.6930   54.5630   22.0190 C   0  0  0  0  0  0  0  0  0  0  0  0
   51.3540   53.3100   21.5500 C   0  0  0  0  0  0  0  0  0  0  0  0
   50.4790   53.1800   20.4800 C   0  0  0  0  0  0  0  0  0  0  0  0
   49.9450   54.3130   19.8790 C   0  0  0  0  0  0  0  0  0  0  0  0
   50.2800   55.5670   20.3510 C   0  0  0  0  0  0  0  0  0  0  0  0
   53.0120   58.9270   21.9790 C   0  0  0  0  0  0  0  0  0  0  0  0
   52.6860   57.5180   21.5550 C   0  0  0  0  0  0  0  0  0  0  0  0
   51.5020   56.9690   21.8930 N   0  0  0  0  0  0  0  0  0  0  0  0
   50.8870   57.4550   22.4650 H   0  0  0  0  0  0  0  0  0  0  0  0
   53.4890   56.8770   20.9100 O   0  0  0  0  0  0  0  0  0  0  0  0
   49.9210   51.6960   18.5730 C   0  0  0  0  0  0  0  0  0  0  0  0
   49.8390   50.1960   18.2880 C   0  0  1  0  0  0  0  0  0  0  0  0
   48.3990   49.8020   18.0780 C   0  0  0  0  0  0  0  0  0  0  0  0
   47.5760   50.5890   17.2940 C   0  0  0  0  0  0  0  0  0  0  0  0
   46.2550   50.2330   17.0990 C   0  0  0  0  0  0  0  0  0  0  0  0
   45.7530   49.0840   17.6890 C   0  0  0  0  0  0  0  0  0  0  0  0
   46.5820   48.2900   18.4780 C   0  0  0  0  0  0  0  0  0  0  0  0
   45.8590   47.2290   18.9390 O   0  0  0  0  0  0  0  0  0  0  0  0
   44.4790   47.5960   18.7610 C   0  0  0  0  0  0  0  0  0  0  0  0
   44.5100   48.5180   17.6550 O   0  0  0  0  0  0  0  0  0  0  0  0
   47.9060   48.6520   18.6650 C   0  0  0  0  0  0  0  0  0  0  0  0
   50.5920   49.8920   17.1110 O   0  0  0  0  0  0  0  0  0  0  0  0
   50.1770   50.1910   16.2910 H   0  0  0  0  0  0  0  0  0  0  0  0
  1  6  1  0  0  0  0
  1  2  1  0  0  0  0
  3 11  1  0  0  0  0
  3  4  2  0  0  0  0
  5  4  1  0  0  0  0
  6  5  2  0  0  0  0
  7  8  2  0  0  0  0
  7  6  1  0  0  0  0
  8  3  1  0  0  0  0
 10 11  1  0  0  0  0
 10  9  1  0  0  0  0
 11 12  1  0  0  0  0
 13 10  2  0  0  0  0
 14  1  1  0  0  0  0
 15 25  1  6  0  0  0
 15 14  1  0  0  0  0
 16 15  1  0  0  0  0
 16 24  2  0  0  0  0
 17 16  1  0  0  0  0
 18 17  2  0  0  0  0
 18 19  1  0  0  0  0
 19 20  2  0  0  0  0
 20 24  1  0  0  0  0
 20 21  1  0  0  0  0
 22 21  1  0  0  0  0
 23 19  1  0  0  0  0
 23 22  1  0  0  0  0
 26 25  1  0  0  0  0
M  END
>  <MODEL>
8

>  <REMARK>
  Name = ZINC49928603
                            x       y       z     vdW  Elec       q    Type
                         _______ _______ _______ _____ _____    ______ ____

>  <TORSDO>
F 6

>  <minimizedAffinity>
-7.8960589398163092

$$$$
ZINC49928603
 OpenBabel10211215183D

 26 28  0  0  1  0  0  0  0  0999 V2000
   50.3880   52.2020   19.0690 N   0  0  0  0  0  0  0  0  0  0  0  0
   51.0290   51.8230   19.6910 H   0  0  0  0  0  0  0  0  0  0  0  0
   47.8210   49.7010   16.9420 C   0  0  0  0  0  0  0  0  0  0  0  0
   47.8820   51.0540   16.6360 C   0  0  0  0  0  0  0  0  0  0  0  0
   48.7330   51.8820   17.3410 C   0  0  0  0  0  0  0  0  0  0  0  0
   49.5270   51.3630   18.3550 C   0  0  0  0  0  0  0  0  0  0  0  0
   49.4650   50.0090   18.6600 C   0  0  0  0  0  0  0  0  0  0  0  0
   48.6110   49.1820   17.9590 C   0  0  0  0  0  0  0  0  0  0  0  0
   44.7060   47.9570   15.7390 C   0  0  0  0  0  0  0  0  0  0  0  0
   45.6570   48.7790   16.5700 C   0  0  0  0  0  0  0  0  0  0  0  0
   46.9570   48.8600   16.2270 N   0  0  0  0  0  0  0  0  0  0  0  0
   47.2960   48.3360   15.4840 H   0  0  0  0  0  0  0  0  0  0  0  0
   45.2510   49.3690   17.5500 O   0  0  0  0  0  0  0  0  0  0  0  0
   50.3220   53.6530   18.8780 C   0  0  0  0  0  0  0  0  0  0  0  0
   49.6010   54.2910   20.0660 C   0  0  1  0  0  0  0  0  0  0  0  0
   50.3920   55.4770   20.5570 C   0  0  0  0  0  0  0  0  0  0  0  0
   49.7430   56.5350   21.1650 C   0  0  0  0  0  0  0  0  0  0  0  0
   50.4640   57.6260   21.6150 C   0  0  0  0  0  0  0  0  0  0  0  0
   51.8400   57.6590   21.4590 C   0  0  0  0  0  0  0  0  0  0  0  0
   52.4940   56.5930   20.8470 C   0  0  0  0  0  0  0  0  0  0  0  0
   53.8320   56.8640   20.8120 O   0  0  0  0  0  0  0  0  0  0  0  0
   53.9430   58.2800   21.0390 C   0  0  0  0  0  0  0  0  0  0  0  0
   52.7680   58.5970   21.8080 O   0  0  0  0  0  0  0  0  0  0  0  0
   51.7650   55.5020   20.4020 C   0  0  0  0  0  0  0  0  0  0  0  0
   48.3010   54.7230   19.6590 O   0  0  0  0  0  0  0  0  0  0  0  0
   48.1830   55.6820   19.6700 H   0  0  0  0  0  0  0  0  0  0  0  0
  1  2  1  0  0  0  0
  3  8  1  0  0  0  0
  4  3  2  0  0  0  0
  4  5  1  0  0  0  0
  5  6  2  0  0  0  0
  6  7  1  0  0  0  0
  6  1  1  0  0  0  0
  8  7  2  0  0  0  0
  9 10  1  0  0  0  0
 10 13  2  0  0  0  0
 11 10  1  0  0  0  0
 11  3  1  0  0  0  0
 12 11  1  0  0  0  0
 14  1  1  0  0  0  0
 15 14  1  6  0  0  0
 15 16  1  0  0  0  0
 16 17  1  0  0  0  0
 17 18  2  0  0  0  0
 19 18  1  0  0  0  0
 19 23  1  0  0  0  0
 20 19  2  0  0  0  0
 21 20  1  0  0  0  0
 21 22  1  0  0  0  0
 22 23  1  0  0  0  0
 24 16  2  0  0  0  0
 24 20  1  0  0  0  0
 25 26  1  0  0  0  0
 25 15  1  0  0  0  0
M  END
>  <MODEL>
9

>  <REMARK>
  Name = ZINC49928603
                            x       y       z     vdW  Elec       q    Type
                         _______ _______ _______ _____ _____    ______ ____

>  <TORSDO>
F 6

>  <minimizedAffinity>
-7.6444400396125127

$$$$
ZINC40675785
 OpenBabel10211215193D

 25 26  0  0  0  0  0  0  0  0999 V2000
   50.4640   52.4070   17.7230 N   0  0  0  0  0  0  0  0  0  0  0  0
   51.1440   52.2280   17.0550 H   0  0  0  0  0  0  0  0  0  0  0  0
   51.2710   55.0010   20.8780 C   0  0  0  0  0  0  0  0  0  0  0  0
   49.9780   54.5670   20.6560 C   0  0  0  0  0  0  0  0  0  0  0  0
   49.7060   53.7050   19.6100 C   0  0  0  0  0  0  0  0  0  0  0  0
   50.7350   53.2770   18.7800 C   0  0  0  0  0  0  0  0  0  0  0  0
   52.0330   53.7170   19.0060 C   0  0  0  0  0  0  0  0  0  0  0  0
   52.2970   54.5810   20.0490 C   0  0  0  0  0  0  0  0  0  0  0  0
   51.6130   56.1000   22.2120 S   0  0  0  0  0  0  0  0  0  0  0  0
   50.5700   57.0650   22.2210 O   0  0  0  0  0  0  0  0  0  0  0  0
   51.9100   55.2880   23.3400 O   0  0  0  0  0  0  0  0  0  0  0  0
   52.9410   58.1670   21.0810 C   0  0  0  0  0  0  0  0  0  0  0  0
   53.0060   56.9120   21.8330 N   0  0  0  0  0  0  0  0  0  0  0  0
   53.8650   56.5550   22.1090 H   0  0  0  0  0  0  0  0  0  0  0  0
   49.1510   51.7640   17.6210 C   0  0  0  0  0  0  0  0  0  0  0  0
   49.2580   50.3090   18.0830 C   0  0  0  0  0  0  0  0  0  0  0  0
   47.8940   49.6700   18.0510 C   0  0  0  0  0  0  0  0  0  0  0  0
   46.9260   50.1550   17.1900 C   0  0  0  0  0  0  0  0  0  0  0  0
   45.6740   49.5720   17.1580 C   0  0  0  0  0  0  0  0  0  0  0  0
   45.3890   48.4970   17.9900 C   0  0  0  0  0  0  0  0  0  0  0  0
   46.3630   48.0120   18.8530 C   0  0  0  0  0  0  0  0  0  0  0  0
   47.6150   48.5960   18.8760 C   0  0  0  0  0  0  0  0  0  0  0  0
   44.1240   47.9050   17.9600 N   0  0  0  0  0  0  0  0  0  0  0  0
   44.0400   46.9440   17.8540 H   0  0  0  0  0  0  0  0  0  0  0  0
   43.3290   48.4550   18.0450 H   0  0  0  0  0  0  0  0  0  0  0  0
  1  6  1  0  0  0  0
  2  1  1  0  0  0  0
  3  9  1  0  0  0  0
  4  3  1  0  0  0  0
  5  4  2  0  0  0  0
  6  7  2  0  0  0  0
  6  5  1  0  0  0  0
  7  8  1  0  0  0  0
  8  3  2  0  0  0  0
  9 10  2  0  0  0  0
  9 11  2  0  0  0  0
 12 13  1  0  0  0  0
 13 14  1  0  0  0  0
 13  9  1  0  0  0  0
 15  1  1  0  0  0  0
 15 16  1  0  0  0  0
 17 16  1  0  0  0  0
 17 22  2  0  0  0  0
 18 17  1  0  0  0  0
 19 18  2  0  0  0  0
 19 20  1  0  0  0  0
 20 21  2  0  0  0  0
 21 22  1  0  0  0  0
 23 20  1  0  0  0  0
 23 25  1  0  0  0  0
 24 23  1  0  0  0  0
M  END
>  <MODEL>
1

>  <REMARK>
  Name = ZINC40675785
                            x       y       z     vdW  Elec       q    Type
                         _______ _______ _______ _____ _____    ______ ____

>  <TORSDO>
F 7

>  <minimizedAffinity>
-8.1385342710042714

$$$$
ZINC40675785
 OpenBabel10211215193D

 25 26  0  0  0  0  0  0  0  0999 V2000
   49.7230   51.9230   17.4600 N   0  0  0  0  0  0  0  0  0  0  0  0
   50.5080   51.7280   16.9260 H   0  0  0  0  0  0  0  0  0  0  0  0
   46.7610   49.0350   17.9380 C   0  0  0  0  0  0  0  0  0  0  0  0
   46.4880   50.1940   17.2360 C   0  0  0  0  0  0  0  0  0  0  0  0
   47.4680   51.1540   17.0750 C   0  0  0  0  0  0  0  0  0  0  0  0
   48.7300   50.9550   17.6210 C   0  0  0  0  0  0  0  0  0  0  0  0
   49.0010   49.7890   18.3270 C   0  0  0  0  0  0  0  0  0  0  0  0
   48.0150   48.8360   18.4890 C   0  0  0  0  0  0  0  0  0  0  0  0
   45.5080   47.8130   18.1410 S   0  0  0  0  0  0  0  0  0  0  0  0
   45.5690   47.3920   19.4970 O   0  0  0  0  0  0  0  0  0  0  0  0
   44.3260   48.3440   17.5600 O   0  0  0  0  0  0  0  0  0  0  0  0
   45.7860   46.5520   15.7640 C   0  0  0  0  0  0  0  0  0  0  0  0
   45.9440   46.5080   17.2200 N   0  0  0  0  0  0  0  0  0  0  0  0
   46.3050   45.7130   17.6460 H   0  0  0  0  0  0  0  0  0  0  0  0
   49.5780   53.2330   18.1000 C   0  0  0  0  0  0  0  0  0  0  0  0
   50.0000   53.1330   19.5680 C   0  0  0  0  0  0  0  0  0  0  0  0
   49.8580   54.4820   20.2250 C   0  0  0  0  0  0  0  0  0  0  0  0
   50.8080   54.9080   21.1360 C   0  0  0  0  0  0  0  0  0  0  0  0
   50.6820   56.1430   21.7400 C   0  0  0  0  0  0  0  0  0  0  0  0
   49.6000   56.9580   21.4310 C   0  0  0  0  0  0  0  0  0  0  0  0
   48.6490   56.5280   20.5160 C   0  0  0  0  0  0  0  0  0  0  0  0
   48.7840   55.2930   19.9110 C   0  0  0  0  0  0  0  0  0  0  0  0
   49.4690   58.2090   22.0410 N   0  0  0  0  0  0  0  0  0  0  0  0
   49.9420   58.9760   21.6800 H   0  0  0  0  0  0  0  0  0  0  0  0
   48.9070   58.3090   22.8240 H   0  0  0  0  0  0  0  0  0  0  0  0
  1  6  1  0  0  0  0
  1 15  1  0  0  0  0
  2  1  1  0  0  0  0
  3  9  1  0  0  0  0
  3  8  2  0  0  0  0
  4  3  1  0  0  0  0
  5  4  2  0  0  0  0
  5  6  1  0  0  0  0
  6  7  2  0  0  0  0
  7  8  1  0  0  0  0
  9 10  2  0  0  0  0
 11  9  2  0  0  0  0
 12 13  1  0  0  0  0
 13 14  1  0  0  0  0
 13  9  1  0  0  0  0
 15 16  1  0  0  0  0
 16 17  1  0  0  0  0
 17 18  1  0  0  0  0
 18 19  2  0  0  0  0
 20 19  1  0  0  0  0
 20 23  1  0  0  0  0
 21 20  2  0  0  0  0
 22 17  2  0  0  0  0
 22 21  1  0  0  0  0
 23 25  1  0  0  0  0
 24 23  1  0  0  0  0
M  END
>  <MODEL>
2

>  <REMARK>
  Name = ZINC40675785
                            x       y       z     vdW  Elec       q    Type
                         _______ _______ _______ _____ _____    ______ ____

>  <TORSDO>
F 7

>  <minimizedAffinity>
-7.9547273260299001

$$$$
ZINC40675785
 OpenBabel10211215193D

 25 26  0  0  0  0  0  0  0  0999 V2000
   49.8830   52.0730   17.7190 N   0  0  0  0  0  0  0  0  0  0  0  0
   50.4930   52.1190   16.9670 H   0  0  0  0  0  0  0  0  0  0  0  0
   46.9370   49.1320   17.8350 C   0  0  0  0  0  0  0  0  0  0  0  0
   48.0890   48.9850   18.5860 C   0  0  0  0  0  0  0  0  0  0  0  0
   49.0690   49.9590   18.5500 C   0  0  0  0  0  0  0  0  0  0  0  0
   48.8950   51.0870   17.7580 C   0  0  0  0  0  0  0  0  0  0  0  0
   47.7370   51.2310   17.0050 C   0  0  0  0  0  0  0  0  0  0  0  0
   46.7640   50.2520   17.0410 C   0  0  0  0  0  0  0  0  0  0  0  0
   45.6900   47.8880   17.8840 S   0  0  0  0  0  0  0  0  0  0  0  0
   44.4720   48.5220   17.5170 O   0  0  0  0  0  0  0  0  0  0  0  0
   46.2080   46.7670   17.1830 O   0  0  0  0  0  0  0  0  0  0  0  0
   44.2710   46.8190   19.9240 C   0  0  0  0  0  0  0  0  0  0  0  0
   45.5250   47.4230   19.4650 N   0  0  0  0  0  0  0  0  0  0  0  0
   46.2580   47.5520   20.0870 H   0  0  0  0  0  0  0  0  0  0  0  0
   49.9980   53.0390   18.8160 C   0  0  0  0  0  0  0  0  0  0  0  0
   48.8190   54.0130   18.7630 C   0  0  0  0  0  0  0  0  0  0  0  0
   49.0540   55.1390   19.7360 C   0  0  0  0  0  0  0  0  0  0  0  0
   50.2030   55.1560   20.5060 C   0  0  0  0  0  0  0  0  0  0  0  0
   50.4220   56.1860   21.3990 C   0  0  0  0  0  0  0  0  0  0  0  0
   49.4860   57.2060   21.5230 C   0  0  0  0  0  0  0  0  0  0  0  0
   48.3340   57.1850   20.7490 C   0  0  0  0  0  0  0  0  0  0  0  0
   48.1240   56.1550   19.8530 C   0  0  0  0  0  0  0  0  0  0  0  0
   49.7050   58.2490   22.4270 N   0  0  0  0  0  0  0  0  0  0  0  0
   48.9790   58.5640   22.9880 H   0  0  0  0  0  0  0  0  0  0  0  0
   50.5820   58.6580   22.4930 H   0  0  0  0  0  0  0  0  0  0  0  0
  1  6  1  0  0  0  0
  1 15  1  0  0  0  0
  2  1  1  0  0  0  0
  3  9  1  0  0  0  0
  3  4  2  0  0  0  0
  5  4  1  0  0  0  0
  6  5  2  0  0  0  0
  7  8  2  0  0  0  0
  7  6  1  0  0  0  0
  8  3  1  0  0  0  0
  9 13  1  0  0  0  0
 10  9  2  0  0  0  0
 11  9  2  0  0  0  0
 13 12  1  0  0  0  0
 13 14  1  0  0  0  0
 16 15  1  0  0  0  0
 16 17  1  0  0  0  0
 17 22  2  0  0  0  0
 17 18  1  0  0  0  0
 18 19  2  0  0  0  0
 19 20  1  0  0  0  0
 20 23  1  0  0  0  0
 21 20  2  0  0  0  0
 22 21  1  0  0  0  0
 23 25  1  0  0  0  0
 23 24  1  0  0  0  0
M  END
>  <MODEL>
3

>  <REMARK>
  Name = ZINC40675785
                            x       y       z     vdW  Elec       q    Type
                         _______ _______ _______ _____ _____    ______ ____

>  <TORSDO>
F 7

>  <minimizedAffinity>
-7.9499384457041673

$$$$
ZINC40675785
 OpenBabel10211215193D

 25 26  0  0  0  0  0  0  0  0999 V2000
   51.4200   50.1210   19.3270 N   0  0  0  0  0  0  0  0  0  0  0  0
   52.2370   49.6300   19.1500 H   0  0  0  0  0  0  0  0  0  0  0  0
   51.6030   54.1140   20.4950 C   0  0  0  0  0  0  0  0  0  0  0  0
   50.9680   53.1870   21.3020 C   0  0  0  0  0  0  0  0  0  0  0  0
   50.9060   51.8610   20.9180 C   0  0  0  0  0  0  0  0  0  0  0  0
   51.4810   51.4600   19.7180 C   0  0  0  0  0  0  0  0  0  0  0  0
   52.1170   52.3940   18.9100 C   0  0  0  0  0  0  0  0  0  0  0  0
   52.1710   53.7180   19.2980 C   0  0  0  0  0  0  0  0  0  0  0  0
   51.6800   55.8030   20.9890 S   0  0  0  0  0  0  0  0  0  0  0  0
   52.4810   55.8460   22.1630 O   0  0  0  0  0  0  0  0  0  0  0  0
   51.9940   56.5530   19.8240 O   0  0  0  0  0  0  0  0  0  0  0  0
   49.8230   57.6680   21.6130 C   0  0  0  0  0  0  0  0  0  0  0  0
   50.1520   56.2510   21.4440 N   0  0  0  0  0  0  0  0  0  0  0  0
   49.4740   55.5730   21.5980 H   0  0  0  0  0  0  0  0  0  0  0  0
   50.1210   49.4590   19.1820 C   0  0  0  0  0  0  0  0  0  0  0  0
   49.2540   50.2470   18.1970 C   0  0  0  0  0  0  0  0  0  0  0  0
   47.8860   49.6200   18.1190 C   0  0  0  0  0  0  0  0  0  0  0  0
   47.5650   48.5620   18.9490 C   0  0  0  0  0  0  0  0  0  0  0  0
   46.3120   47.9850   18.8810 C   0  0  0  0  0  0  0  0  0  0  0  0
   45.3740   48.4690   17.9780 C   0  0  0  0  0  0  0  0  0  0  0  0
   45.7000   49.5310   17.1460 C   0  0  0  0  0  0  0  0  0  0  0  0
   46.9540   50.1080   17.2230 C   0  0  0  0  0  0  0  0  0  0  0  0
   44.1060   47.8870   17.9060 N   0  0  0  0  0  0  0  0  0  0  0  0
   43.9620   47.1060   17.3490 H   0  0  0  0  0  0  0  0  0  0  0  0
   43.3710   48.2630   18.4140 H   0  0  0  0  0  0  0  0  0  0  0  0
  1  6  1  0  0  0  0
  2  1  1  0  0  0  0
  3  9  1  0  0  0  0
  3  4  2  0  0  0  0
  5  4  1  0  0  0  0
  6  5  2  0  0  0  0
  7  8  2  0  0  0  0
  7  6  1  0  0  0  0
  8  3  1  0  0  0  0
  9 13  1  0  0  0  0
  9 10  2  0  0  0  0
 11  9  2  0  0  0  0
 13 14  1  0  0  0  0
 13 12  1  0  0  0  0
 15  1  1  0  0  0  0
 16 15  1  0  0  0  0
 17 16  1  0  0  0  0
 17 18  2  0  0  0  0
 19 18  1  0  0  0  0
 20 19  2  0  0  0  0
 21 22  2  0  0  0  0
 21 20  1  0  0  0  0
 22 17  1  0  0  0  0
 23 20  1  0  0  0  0
 23 25  1  0  0  0  0
 24 23  1  0  0  0  0
M  END
>  <MODEL>
4

>  <REMARK>
  Name = ZINC40675785
                            x       y       z     vdW  Elec       q    Type
                         _______ _______ _______ _____ _____    ______ ____

>  <TORSDO>
F 7

>  <minimizedAffinity>
-7.7373466568437275

$$$$
ZINC40675785
 OpenBabel10211215193D

 25 26  0  0  0  0  0  0  0  0999 V2000
   47.0330   58.3910   20.1470 N   0  0  0  0  0  0  0  0  0  0  0  0
   46.1930   58.3220   20.6260 H   0  0  0  0  0  0  0  0  0  0  0  0
   50.4360   56.5030   21.6270 C   0  0  0  0  0  0  0  0  0  0  0  0
   49.7480   55.9500   20.5630 C   0  0  0  0  0  0  0  0  0  0  0  0
   48.6190   56.5730   20.0690 C   0  0  0  0  0  0  0  0  0  0  0  0
   48.1740   57.7570   20.6440 C   0  0  0  0  0  0  0  0  0  0  0  0
   48.8670   58.3090   21.7140 C   0  0  0  0  0  0  0  0  0  0  0  0
   49.9920   57.6780   22.2060 C   0  0  0  0  0  0  0  0  0  0  0  0
   51.8760   55.7040   22.2540 S   0  0  0  0  0  0  0  0  0  0  0  0
   51.5890   55.3510   23.6010 O   0  0  0  0  0  0  0  0  0  0  0  0
   52.2640   54.7450   21.2810 O   0  0  0  0  0  0  0  0  0  0  0  0
   53.5180   57.5030   21.0790 C   0  0  0  0  0  0  0  0  0  0  0  0
   53.0800   56.8390   22.3090 N   0  0  0  0  0  0  0  0  0  0  0  0
   53.4960   57.0630   23.1560 H   0  0  0  0  0  0  0  0  0  0  0  0
   47.1050   59.1580   18.9000 C   0  0  0  0  0  0  0  0  0  0  0  0
   47.3840   60.6280   19.2220 C   0  0  0  0  0  0  0  0  0  0  0  0
   46.0820   61.3830   19.2890 C   0  0  0  0  0  0  0  0  0  0  0  0
   46.0720   62.7040   19.7010 C   0  0  0  0  0  0  0  0  0  0  0  0
   44.8810   63.4000   19.7640 C   0  0  0  0  0  0  0  0  0  0  0  0
   43.6920   62.7720   19.4130 C   0  0  0  0  0  0  0  0  0  0  0  0
   43.7060   61.4470   19.0000 C   0  0  0  0  0  0  0  0  0  0  0  0
   44.9020   60.7580   18.9330 C   0  0  0  0  0  0  0  0  0  0  0  0
   42.4850   63.4730   19.4760 N   0  0  0  0  0  0  0  0  0  0  0  0
   42.0950   63.6900   20.3380 H   0  0  0  0  0  0  0  0  0  0  0  0
   42.0380   63.7440   18.6590 H   0  0  0  0  0  0  0  0  0  0  0  0
  1  2  1  0  0  0  0
  1  6  1  0  0  0  0
  3  8  2  0  0  0  0
  3  9  1  0  0  0  0
  4  3  1  0  0  0  0
  5  4  2  0  0  0  0
  5  6  1  0  0  0  0
  6  7  2  0  0  0  0
  7  8  1  0  0  0  0
  9 13  1  0  0  0  0
  9 10  2  0  0  0  0
 11  9  2  0  0  0  0
 12 13  1  0  0  0  0
 13 14  1  0  0  0  0
 15 16  1  0  0  0  0
 15  1  1  0  0  0  0
 16 17  1  0  0  0  0
 17 18  2  0  0  0  0
 18 19  1  0  0  0  0
 20 23  1  0  0  0  0
 20 19  2  0  0  0  0
 21 20  1  0  0  0  0
 22 21  2  0  0  0  0
 22 17  1  0  0  0  0
 23 24  1  0  0  0  0
 25 23  1  0  0  0  0
M  END
>  <MODEL>
5

>  <REMARK>
  Name = ZINC40675785
                            x       y       z     vdW  Elec       q    Type
                         _______ _______ _______ _____ _____    ______ ____

>  <TORSDO>
F 7

>  <minimizedAffinity>
-7.6749338891970504

$$$$
ZINC40675785
 OpenBabel10211215193D

 25 26  0  0  0  0  0  0  0  0999 V2000
   52.1280   52.5140   21.0590 N   0  0  0  0  0  0  0  0  0  0  0  0
   53.0930   52.4310   21.0650 H   0  0  0  0  0  0  0  0  0  0  0  0
   49.8510   50.1570   18.4890 C   0  0  0  0  0  0  0  0  0  0  0  0
   50.2010   51.4430   18.1190 C   0  0  0  0  0  0  0  0  0  0  0  0
   50.9570   52.2270   18.9680 C   0  0  0  0  0  0  0  0  0  0  0  0
   51.3640   51.7240   20.1970 C   0  0  0  0  0  0  0  0  0  0  0  0
   51.0090   50.4320   20.5670 C   0  0  0  0  0  0  0  0  0  0  0  0
   50.2500   49.6550   19.7150 C   0  0  0  0  0  0  0  0  0  0  0  0
   48.8870   49.1600   17.4020 S   0  0  0  0  0  0  0  0  0  0  0  0
   48.8860   47.8490   17.9510 O   0  0  0  0  0  0  0  0  0  0  0  0
   47.6900   49.8800   17.1450 O   0  0  0  0  0  0  0  0  0  0  0  0
   49.2030   49.7870   14.7900 C   0  0  0  0  0  0  0  0  0  0  0  0
   49.7050   49.0710   15.9650 N   0  0  0  0  0  0  0  0  0  0  0  0
   50.5180   48.5440   15.9020 H   0  0  0  0  0  0  0  0  0  0  0  0
   51.4680   53.4680   21.9550 C   0  0  0  0  0  0  0  0  0  0  0  0
   51.8900   54.8920   21.5830 C   0  0  0  0  0  0  0  0  0  0  0  0
   50.6630   55.7260   21.3200 C   0  0  0  0  0  0  0  0  0  0  0  0
   49.6890   55.2650   20.4520 C   0  0  0  0  0  0  0  0  0  0  0  0
   48.5630   56.0260   20.2080 C   0  0  0  0  0  0  0  0  0  0  0  0
   48.4090   57.2560   20.8360 C   0  0  0  0  0  0  0  0  0  0  0  0
   49.3890   57.7160   21.7060 C   0  0  0  0  0  0  0  0  0  0  0  0
   50.5100   56.9460   21.9500 C   0  0  0  0  0  0  0  0  0  0  0  0
   47.2710   58.0290   20.5910 N   0  0  0  0  0  0  0  0  0  0  0  0
   47.1630   58.8860   21.0330 H   0  0  0  0  0  0  0  0  0  0  0  0
   46.5900   57.7090   19.9800 H   0  0  0  0  0  0  0  0  0  0  0  0
  1  2  1  0  0  0  0
  1 15  1  0  0  0  0
  3  8  1  0  0  0  0
  4  3  2  0  0  0  0
  4  5  1  0  0  0  0
  5  6  2  0  0  0  0
  6  7  1  0  0  0  0
  6  1  1  0  0  0  0
  8  7  2  0  0  0  0
  9 10  2  0  0  0  0
  9  3  1  0  0  0  0
 11  9  2  0  0  0  0
 12 13  1  0  0  0  0
 13  9  1  0  0  0  0
 14 13  1  0  0  0  0
 16 15  1  0  0  0  0
 17 16  1  0  0  0  0
 17 22  2  0  0  0  0
 18 17  1  0  0  0  0
 19 18  2  0  0  0  0
 19 20  1  0  0  0  0
 20 21  2  0  0  0  0
 21 22  1  0  0  0  0
 23 20  1  0  0  0  0
 23 24  1  0  0  0  0
 25 23  1  0  0  0  0
M  END
>  <MODEL>
6

>  <REMARK>
  Name = ZINC40675785
                            x       y       z     vdW  Elec       q    Type
                         _______ _______ _______ _____ _____    ______ ____

>  <TORSDO>
F 7

>  <minimizedAffinity>
-7.6377621973601588

$$$$
ZINC40675785
 OpenBabel10211215193D

 25 26  0  0  0  0  0  0  0  0999 V2000
   49.8470   51.7410   17.7740 N   0  0  0  0  0  0  0  0  0  0  0  0
   50.5240   51.6550   17.0860 H   0  0  0  0  0  0  0  0  0  0  0  0
   46.7630   48.9530   18.0170 C   0  0  0  0  0  0  0  0  0  0  0  0
   46.5970   50.1020   17.2650 C   0  0  0  0  0  0  0  0  0  0  0  0
   47.6180   51.0290   17.1820 C   0  0  0  0  0  0  0  0  0  0  0  0
   48.8130   50.8060   17.8550 C   0  0  0  0  0  0  0  0  0  0  0  0
   48.9760   49.6510   18.6100 C   0  0  0  0  0  0  0  0  0  0  0  0
   47.9500   48.7310   18.6930 C   0  0  0  0  0  0  0  0  0  0  0  0
   45.4590   47.7730   18.1200 S   0  0  0  0  0  0  0  0  0  0  0  0
   45.4270   47.3220   19.4670 O   0  0  0  0  0  0  0  0  0  0  0  0
   44.3310   48.3580   17.4850 O   0  0  0  0  0  0  0  0  0  0  0  0
   45.7520   46.5230   15.7390 C   0  0  0  0  0  0  0  0  0  0  0  0
   45.9010   46.4720   17.1960 N   0  0  0  0  0  0  0  0  0  0  0  0
   46.2590   45.6760   17.6200 H   0  0  0  0  0  0  0  0  0  0  0  0
   49.9080   52.8510   18.7290 C   0  0  0  0  0  0  0  0  0  0  0  0
   51.0030   52.5750   19.7620 C   0  0  0  0  0  0  0  0  0  0  0  0
   51.3940   53.8640   20.4360 C   0  0  0  0  0  0  0  0  0  0  0  0
   51.8580   54.9250   19.6790 C   0  0  0  0  0  0  0  0  0  0  0  0
   52.2170   56.1080   20.2930 C   0  0  0  0  0  0  0  0  0  0  0  0
   52.1110   56.2330   21.6730 C   0  0  0  0  0  0  0  0  0  0  0  0
   51.6460   55.1660   22.4300 C   0  0  0  0  0  0  0  0  0  0  0  0
   51.2820   53.9870   21.8080 C   0  0  0  0  0  0  0  0  0  0  0  0
   52.4750   57.4290   22.2970 N   0  0  0  0  0  0  0  0  0  0  0  0
   52.6490   57.4440   23.2520 H   0  0  0  0  0  0  0  0  0  0  0  0
   52.5530   58.2430   21.7770 H   0  0  0  0  0  0  0  0  0  0  0  0
  1  6  1  0  0  0  0
  1 15  1  0  0  0  0
  2  1  1  0  0  0  0
  3  9  1  0  0  0  0
  3  8  2  0  0  0  0
  4  3  1  0  0  0  0
  5  4  2  0  0  0  0
  5  6  1  0  0  0  0
  6  7  2  0  0  0  0
  7  8  1  0  0  0  0
  9 10  2  0  0  0  0
 11  9  2  0  0  0  0
 12 13  1  0  0  0  0
 13 14  1  0  0  0  0
 13  9  1  0  0  0  0
 15 16  1  0  0  0  0
 16 17  1  0  0  0  0
 17 22  2  0  0  0  0
 18 19  2  0  0  0  0
 18 17  1  0  0  0  0
 19 20  1  0  0  0  0
 20 23  1  0  0  0  0
 20 21  2  0  0  0  0
 22 21  1  0  0  0  0
 23 24  1  0  0  0  0
 25 23  1  0  0  0  0
M  END
>  <MODEL>
7

>  <REMARK>
  Name = ZINC40675785
                            x       y       z     vdW  Elec       q    Type
                         _______ _______ _______ _____ _____    ______ ____

>  <TORSDO>
F 7

>  <minimizedAffinity>
-7.609111666775993

$$$$
ZINC40675785
 OpenBabel10211215193D

 25 26  0  0  0  0  0  0  0  0999 V2000
   51.6820   51.5930   19.1580 N   0  0  0  0  0  0  0  0  0  0  0  0
   52.2590   51.9610   18.4720 H   0  0  0  0  0  0  0  0  0  0  0  0
   48.1800   49.6100   18.0900 C   0  0  0  0  0  0  0  0  0  0  0  0
   48.4010   50.9030   17.6540 C   0  0  0  0  0  0  0  0  0  0  0  0
   49.5620   51.5650   18.0060 C   0  0  0  0  0  0  0  0  0  0  0  0
   50.5080   50.9280   18.8000 C   0  0  0  0  0  0  0  0  0  0  0  0
   50.2820   49.6290   19.2370 C   0  0  0  0  0  0  0  0  0  0  0  0
   49.1170   48.9760   18.8860 C   0  0  0  0  0  0  0  0  0  0  0  0
   46.6980   48.7700   17.6380 S   0  0  0  0  0  0  0  0  0  0  0  0
   45.7120   49.7730   17.4320 O   0  0  0  0  0  0  0  0  0  0  0  0
   47.0530   47.8330   16.6320 O   0  0  0  0  0  0  0  0  0  0  0  0
   44.8580   47.3350   19.0060 C   0  0  0  0  0  0  0  0  0  0  0  0
   46.2130   47.8920   18.9550 N   0  0  0  0  0  0  0  0  0  0  0  0
   46.8250   47.7460   19.6930 H   0  0  0  0  0  0  0  0  0  0  0  0
   52.0420   51.7340   20.5720 C   0  0  0  0  0  0  0  0  0  0  0  0
   50.8150   52.1820   21.3690 C   0  0  0  0  0  0  0  0  0  0  0  0
   50.8340   53.6820   21.5170 C   0  0  0  0  0  0  0  0  0  0  0  0
   50.0570   54.4660   20.6830 C   0  0  0  0  0  0  0  0  0  0  0  0
   50.0720   55.8410   20.8160 C   0  0  0  0  0  0  0  0  0  0  0  0
   50.8660   56.4350   21.7890 C   0  0  0  0  0  0  0  0  0  0  0  0
   51.6440   55.6440   22.6240 C   0  0  0  0  0  0  0  0  0  0  0  0
   51.6200   54.2690   22.4900 C   0  0  0  0  0  0  0  0  0  0  0  0
   50.8820   57.8250   21.9260 N   0  0  0  0  0  0  0  0  0  0  0  0
   50.9230   58.3890   21.1370 H   0  0  0  0  0  0  0  0  0  0  0  0
   50.8530   58.2260   22.8080 H   0  0  0  0  0  0  0  0  0  0  0  0
  1 15  1  0  0  0  0
  2  1  1  0  0  0  0
  3  8  2  0  0  0  0
  4  5  2  0  0  0  0
  4  3  1  0  0  0  0
  5  6  1  0  0  0  0
  6  1  1  0  0  0  0
  6  7  2  0  0  0  0
  8  7  1  0  0  0  0
  9  3  1  0  0  0  0
  9 13  1  0  0  0  0
 10  9  2  0  0  0  0
 11  9  2  0  0  0  0
 13 12  1  0  0  0  0
 13 14  1  0  0  0  0
 15 16  1  0  0  0  0
 16 17  1  0  0  0  0
 17 22  2  0  0  0  0
 18 19  2  0  0  0  0
 18 17  1  0  0  0  0
 19 20  1  0  0  0  0
 20 23  1  0  0  0  0
 20 21  2  0  0  0  0
 22 21  1  0  0  0  0
 23 25  1  0  0  0  0
 24 23  1  0  0  0  0
M  END
>  <MODEL>
8

>  <REMARK>
  Name = ZINC40675785
                            x       y       z     vdW  Elec       q    Type
                         _______ _______ _______ _____ _____    ______ ____

>  <TORSDO>
F 7

>  <minimizedAffinity>
-7.5996556829405568

$$$$
ZINC40675785
 OpenBabel10211215193D

 25 26  0  0  0  0  0  0  0  0999 V2000
   47.0000   58.4400   20.3520 N   0  0  0  0  0  0  0  0  0  0  0  0
   46.2470   58.4640   20.9610 H   0  0  0  0  0  0  0  0  0  0  0  0
   50.3790   56.1990   21.3030 C   0  0  0  0  0  0  0  0  0  0  0  0
   49.4960   55.7430   20.3420 C   0  0  0  0  0  0  0  0  0  0  0  0
   48.3740   56.4840   20.0230 C   0  0  0  0  0  0  0  0  0  0  0  0
   48.1330   57.6890   20.6710 C   0  0  0  0  0  0  0  0  0  0  0  0
   49.0210   58.1440   21.6380 C   0  0  0  0  0  0  0  0  0  0  0  0
   50.1380   57.3960   21.9550 C   0  0  0  0  0  0  0  0  0  0  0  0
   51.8080   55.2510   21.7070 S   0  0  0  0  0  0  0  0  0  0  0  0
   52.9000   55.8570   21.0270 O   0  0  0  0  0  0  0  0  0  0  0  0
   51.7920   55.0720   23.1160 O   0  0  0  0  0  0  0  0  0  0  0  0
   51.5910   52.5610   21.8900 C   0  0  0  0  0  0  0  0  0  0  0  0
   51.6060   53.7510   21.0350 N   0  0  0  0  0  0  0  0  0  0  0  0
   51.4970   53.6600   20.0750 H   0  0  0  0  0  0  0  0  0  0  0  0
   46.9510   59.1920   19.0950 C   0  0  0  0  0  0  0  0  0  0  0  0
   47.2520   60.6670   19.3710 C   0  0  0  0  0  0  0  0  0  0  0  0
   45.9660   61.4520   19.3640 C   0  0  0  0  0  0  0  0  0  0  0  0
   45.9700   62.7830   19.7410 C   0  0  0  0  0  0  0  0  0  0  0  0
   44.7930   63.5070   19.7360 C   0  0  0  0  0  0  0  0  0  0  0  0
   43.6060   62.8960   19.3500 C   0  0  0  0  0  0  0  0  0  0  0  0
   43.6060   61.5600   18.9730 C   0  0  0  0  0  0  0  0  0  0  0  0
   44.7880   60.8440   18.9750 C   0  0  0  0  0  0  0  0  0  0  0  0
   42.4140   63.6250   19.3440 N   0  0  0  0  0  0  0  0  0  0  0  0
   41.8060   63.5540   18.5910 H   0  0  0  0  0  0  0  0  0  0  0  0
   42.1950   64.2020   20.0920 H   0  0  0  0  0  0  0  0  0  0  0  0
  1  6  1  0  0  0  0
  1  2  1  0  0  0  0
  3  9  1  0  0  0  0
  3  8  2  0  0  0  0
  4  3  1  0  0  0  0
  5  4  2  0  0  0  0
  5  6  1  0  0  0  0
  6  7  2  0  0  0  0
  7  8  1  0  0  0  0
  9 11  2  0  0  0  0
 10  9  2  0  0  0  0
 13  9  1  0  0  0  0
 13 12  1  0  0  0  0
 14 13  1  0  0  0  0
 15 16  1  0  0  0  0
 15  1  1  0  0  0  0
 17 16  1  0  0  0  0
 17 18  2  0  0  0  0
 19 18  1  0  0  0  0
 20 19  2  0  0  0  0
 21 22  2  0  0  0  0
 21 20  1  0  0  0  0
 22 17  1  0  0  0  0
 23 20  1  0  0  0  0
 23 25  1  0  0  0  0
 24 23  1  0  0  0  0
M  END
>  <MODEL>
9

>  <REMARK>
  Name = ZINC40675785
                            x       y       z     vdW  Elec       q    Type
                         _______ _______ _______ _____ _____    ______ ____

>  <TORSDO>
F 7

>  <minimizedAffinity>
-7.4954139303634415

$$$$
ZINC61609107
 OpenBabel10211215213D

 24 24  0  0  1  0  0  0  0  0999 V2000
   51.8920   52.6390   18.6470 C   0  0  0  0  0  0  0  0  0  0  0  0
   51.0110   53.3640   19.3630 N   0  0  0  0  0  0  0  0  0  0  0  0
   50.2250   52.9390   19.7390 H   0  0  0  0  0  0  0  0  0  0  0  0
   52.8770   53.1700   18.1770 O   0  0  0  0  0  0  0  0  0  0  0  0
   51.6550   51.1660   18.4280 C   0  0  2  0  0  0  0  0  0  0  0  0
   52.1550   50.7810   17.1030 N   0  0  0  0  0  0  0  0  0  0  0  0
   52.6650   49.9120   17.1750 H   0  0  0  0  0  0  0  0  0  0  0  0
   52.7680   51.5020   16.7510 H   0  0  0  0  0  0  0  0  0  0  0  0
   51.3780   50.6620   16.4710 H   0  0  0  0  0  0  0  0  0  0  0  0
   50.1550   50.8740   18.5120 C   0  0  0  0  0  0  0  0  0  0  0  0
   50.4270   49.1340   20.2840 C   0  0  0  0  0  0  0  0  0  0  0  0
   49.9410   49.3990   18.8570 C   0  0  0  0  0  0  0  0  0  0  0  0
   48.4520   49.0620   18.7540 C   0  0  0  0  0  0  0  0  0  0  0  0
   51.2430   54.7960   19.5760 C   0  0  0  0  0  0  0  0  0  0  0  0
   50.8160   55.1760   20.9950 C   0  0  2  0  0  0  0  0  0  0  0  0
   49.7210   56.2090   20.9300 C   0  0  0  0  0  0  0  0  0  0  0  0
   48.6730   56.0490   20.0430 C   0  0  0  0  0  0  0  0  0  0  0  0
   47.6680   56.9970   19.9820 C   0  0  0  0  0  0  0  0  0  0  0  0
   47.7120   58.1050   20.8100 C   0  0  0  0  0  0  0  0  0  0  0  0
   48.7600   58.2640   21.6970 C   0  0  0  0  0  0  0  0  0  0  0  0
   49.7620   57.3140   21.7600 C   0  0  0  0  0  0  0  0  0  0  0  0
   51.9970   55.7410   21.7400 C   0  0  0  0  0  0  0  0  0  0  0  0
   52.8550   56.3660   21.1400 O   0  0  0  0  0  0  0  0  0  0  0  0
   52.0950   55.5720   22.9450 O   0  0  0  0  0  0  0  0  0  0  0  0
  1  2  1  0  0  0  0
  2 14  1  0  0  0  0
  2  3  1  0  0  0  0
  4  1  2  0  0  0  0
  5  6  1  6  0  0  0
  5 10  1  0  0  0  0
  5  1  1  0  0  0  0
  6  7  1  0  0  0  0
  8  6  1  0  0  0  0
  9  6  1  0  0  0  0
 10 12  1  0  0  0  0
 12 11  1  0  0  0  0
 13 12  1  0  0  0  0
 15 14  1  6  0  0  0
 15 22  1  0  0  0  0
 16 15  1  0  0  0  0
 16 21  2  0  0  0  0
 17 16  1  0  0  0  0
 18 17  2  0  0  0  0
 18 19  1  0  0  0  0
 19 20  2  0  0  0  0
 20 21  1  0  0  0  0
 22 24  1  0  0  0  0
 23 22  2  0  0  0  0
M  END
>  <MODEL>
1

>  <REMARK>
  Name = ZINC61609107
                            x       y       z     vdW  Elec       q    Type
                         _______ _______ _______ _____ _____    ______ ____

>  <TORSDO>
F 8

>  <minimizedAffinity>
-8.2035643906796789

$$$$
ZINC61609107
 OpenBabel10211215213D

 24 24  0  0  1  0  0  0  0  0999 V2000
   51.7650   52.5990   18.6090 C   0  0  0  0  0  0  0  0  0  0  0  0
   50.8730   53.3600   19.2730 N   0  0  0  0  0  0  0  0  0  0  0  0
   50.0610   52.9620   19.6240 H   0  0  0  0  0  0  0  0  0  0  0  0
   52.7810   53.0970   18.1720 O   0  0  0  0  0  0  0  0  0  0  0  0
   51.5010   51.1290   18.4100 C   0  0  2  0  0  0  0  0  0  0  0  0
   51.8630   50.7470   17.0400 N   0  0  0  0  0  0  0  0  0  0  0  0
   51.2750   51.2430   16.3860 H   0  0  0  0  0  0  0  0  0  0  0  0
   51.7330   49.7530   16.9210 H   0  0  0  0  0  0  0  0  0  0  0  0
   52.8290   50.9820   16.8690 H   0  0  0  0  0  0  0  0  0  0  0  0
   50.0160   50.8420   18.6450 C   0  0  0  0  0  0  0  0  0  0  0  0
   50.3570   48.9910   20.2880 C   0  0  0  0  0  0  0  0  0  0  0  0
   49.8200   49.3460   18.9000 C   0  0  0  0  0  0  0  0  0  0  0  0
   48.3290   49.0070   18.8270 C   0  0  0  0  0  0  0  0  0  0  0  0
   51.1300   54.7900   19.4670 C   0  0  0  0  0  0  0  0  0  0  0  0
   50.7880   55.1790   20.9070 C   0  0  2  0  0  0  0  0  0  0  0  0
   49.7040   56.2250   20.9000 C   0  0  0  0  0  0  0  0  0  0  0  0
   49.7690   57.2930   21.7740 C   0  0  0  0  0  0  0  0  0  0  0  0
   48.7730   58.2530   21.7680 C   0  0  0  0  0  0  0  0  0  0  0  0
   47.7130   58.1430   20.8870 C   0  0  0  0  0  0  0  0  0  0  0  0
   47.6480   57.0750   20.0130 C   0  0  0  0  0  0  0  0  0  0  0  0
   48.6460   56.1180   20.0170 C   0  0  0  0  0  0  0  0  0  0  0  0
   52.0160   55.7310   21.5830 C   0  0  0  0  0  0  0  0  0  0  0  0
   52.1360   55.6460   22.7940 O   0  0  0  0  0  0  0  0  0  0  0  0
   52.8900   56.2640   20.9190 O   0  0  0  0  0  0  0  0  0  0  0  0
  1  2  1  0  0  0  0
  2 14  1  0  0  0  0
  2  3  1  0  0  0  0
  4  1  2  0  0  0  0
  5  6  1  6  0  0  0
  5  1  1  0  0  0  0
  5 10  1  0  0  0  0
  7  6  1  0  0  0  0
  8  6  1  0  0  0  0
  9  6  1  0  0  0  0
 10 12  1  0  0  0  0
 12 11  1  0  0  0  0
 13 12  1  0  0  0  0
 15 14  1  6  0  0  0
 15 22  1  0  0  0  0
 16 15  1  0  0  0  0
 16 17  2  0  0  0  0
 18 17  1  0  0  0  0
 19 18  2  0  0  0  0
 20 21  2  0  0  0  0
 20 19  1  0  0  0  0
 21 16  1  0  0  0  0
 22 23  1  0  0  0  0
 24 22  2  0  0  0  0
M  END
>  <MODEL>
2

>  <REMARK>
  Name = ZINC61609107
                            x       y       z     vdW  Elec       q    Type
                         _______ _______ _______ _____ _____    ______ ____

>  <TORSDO>
F 8

>  <minimizedAffinity>
-8.1823414951314053

$$$$
ZINC61609107
 OpenBabel10211215213D

 24 24  0  0  1  0  0  0  0  0999 V2000
   48.7420   52.1450   17.1900 C   0  0  0  0  0  0  0  0  0  0  0  0
   49.4070   52.7040   18.2180 N   0  0  0  0  0  0  0  0  0  0  0  0
   50.0520   52.1820   18.7200 H   0  0  0  0  0  0  0  0  0  0  0  0
   47.9350   52.7980   16.5600 O   0  0  0  0  0  0  0  0  0  0  0  0
   48.9970   50.7060   16.8190 C   0  0  2  0  0  0  0  0  0  0  0  0
   49.9340   50.6500   15.6900 N   0  0  0  0  0  0  0  0  0  0  0  0
   50.7280   50.0780   15.9390 H   0  0  0  0  0  0  0  0  0  0  0  0
   50.2490   51.5830   15.4670 H   0  0  0  0  0  0  0  0  0  0  0  0
   49.4710   50.2500   14.8870 H   0  0  0  0  0  0  0  0  0  0  0  0
   47.6780   50.0400   16.4210 C   0  0  0  0  0  0  0  0  0  0  0  0
   45.4880   49.1880   17.2690 C   0  0  0  0  0  0  0  0  0  0  0  0
   46.8360   49.7890   17.6730 C   0  0  0  0  0  0  0  0  0  0  0  0
   47.5720   48.8170   18.5960 C   0  0  0  0  0  0  0  0  0  0  0  0
   49.1590   54.1030   18.5770 C   0  0  0  0  0  0  0  0  0  0  0  0
   49.7980   54.4020   19.9350 C   0  0  2  0  0  0  0  0  0  0  0  0
   49.3100   55.7370   20.4360 C   0  0  0  0  0  0  0  0  0  0  0  0
   50.0590   56.4460   21.3560 C   0  0  0  0  0  0  0  0  0  0  0  0
   49.6110   57.6700   21.8160 C   0  0  0  0  0  0  0  0  0  0  0  0
   48.4130   58.1850   21.3560 C   0  0  0  0  0  0  0  0  0  0  0  0
   47.6630   57.4760   20.4360 C   0  0  0  0  0  0  0  0  0  0  0  0
   48.1140   56.2540   19.9730 C   0  0  0  0  0  0  0  0  0  0  0  0
   51.2970   54.4380   19.7870 C   0  0  0  0  0  0  0  0  0  0  0  0
   52.0060   53.9190   20.6330 O   0  0  0  0  0  0  0  0  0  0  0  0
   51.8020   54.9880   18.8220 O   0  0  0  0  0  0  0  0  0  0  0  0
  1  2  1  0  0  0  0
  2 14  1  0  0  0  0
  2  3  1  0  0  0  0
  4  1  2  0  0  0  0
  5  6  1  6  0  0  0
  5  1  1  0  0  0  0
  6  7  1  0  0  0  0
  8  6  1  0  0  0  0
  9  6  1  0  0  0  0
 10  5  1  0  0  0  0
 10 12  1  0  0  0  0
 11 12  1  0  0  0  0
 12 13  1  0  0  0  0
 15 14  1  6  0  0  0
 15 16  1  0  0  0  0
 16 17  1  0  0  0  0
 17 18  2  0  0  0  0
 19 18  1  0  0  0  0
 20 19  2  0  0  0  0
 21 16  2  0  0  0  0
 21 20  1  0  0  0  0
 22 15  1  0  0  0  0
 22 23  1  0  0  0  0
 24 22  2  0  0  0  0
M  END
>  <MODEL>
3

>  <REMARK>
  Name = ZINC61609107
                            x       y       z     vdW  Elec       q    Type
                         _______ _______ _______ _____ _____    ______ ____

>  <TORSDO>
F 8

>  <minimizedAffinity>
-7.8033710895243216

$$$$
ZINC61609107
 OpenBabel10211215213D

 24 24  0  0  1  0  0  0  0  0999 V2000
   51.2000   50.0980   20.1020 C   0  0  0  0  0  0  0  0  0  0  0  0
   50.8280   49.9650   18.8150 N   0  0  0  0  0  0  0  0  0  0  0  0
   51.3460   50.3910   18.1130 H   0  0  0  0  0  0  0  0  0  0  0  0
   50.5530   49.5650   20.9790 O   0  0  0  0  0  0  0  0  0  0  0  0
   52.4200   50.9100   20.4550 C   0  0  2  0  0  0  0  0  0  0  0  0
   52.5640   50.9690   21.9150 N   0  0  0  0  0  0  0  0  0  0  0  0
   51.9340   51.6640   22.2870 H   0  0  0  0  0  0  0  0  0  0  0  0
   53.5140   51.2160   22.1500 H   0  0  0  0  0  0  0  0  0  0  0  0
   52.3440   50.0670   22.3120 H   0  0  0  0  0  0  0  0  0  0  0  0
   52.2670   52.3280   19.8990 C   0  0  0  0  0  0  0  0  0  0  0  0
   51.6070   54.2450   21.3590 C   0  0  0  0  0  0  0  0  0  0  0  0
   51.0950   53.0230   20.5940 C   0  0  0  0  0  0  0  0  0  0  0  0
   50.0730   53.4690   19.5450 C   0  0  0  0  0  0  0  0  0  0  0  0
   49.6420   49.1750   18.4720 C   0  0  0  0  0  0  0  0  0  0  0  0
   48.5180   50.1120   18.0230 C   0  0  2  0  0  0  0  0  0  0  0  0
   47.2110   49.3610   18.0230 C   0  0  0  0  0  0  0  0  0  0  0  0
   47.0080   48.3270   18.9170 C   0  0  0  0  0  0  0  0  0  0  0  0
   45.8090   47.6380   18.9170 C   0  0  0  0  0  0  0  0  0  0  0  0
   44.8130   47.9850   18.0220 C   0  0  0  0  0  0  0  0  0  0  0  0
   45.0160   49.0190   17.1280 C   0  0  0  0  0  0  0  0  0  0  0  0
   46.2130   49.7100   17.1320 C   0  0  0  0  0  0  0  0  0  0  0  0
   48.8090   50.6160   16.6340 C   0  0  0  0  0  0  0  0  0  0  0  0
   48.4650   51.7400   16.3090 O   0  0  0  0  0  0  0  0  0  0  0  0
   49.3870   49.8990   15.8340 O   0  0  0  0  0  0  0  0  0  0  0  0
  1  5  1  0  0  0  0
  1  4  2  0  0  0  0
  2  1  1  0  0  0  0
  3  2  1  0  0  0  0
  5 10  1  1  0  0  0
  5  6  1  0  0  0  0
  6  8  1  0  0  0  0
  6  7  1  0  0  0  0
  6  9  1  0  0  0  0
 10 12  1  0  0  0  0
 12 11  1  0  0  0  0
 13 12  1  0  0  0  0
 14  2  1  0  0  0  0
 15 22  1  6  0  0  0
 15 14  1  0  0  0  0
 16 15  1  0  0  0  0
 16 17  2  0  0  0  0
 18 17  1  0  0  0  0
 19 18  2  0  0  0  0
 20 21  2  0  0  0  0
 20 19  1  0  0  0  0
 21 16  1  0  0  0  0
 23 22  1  0  0  0  0
 24 22  2  0  0  0  0
M  END
>  <MODEL>
4

>  <REMARK>
  Name = ZINC61609107
                            x       y       z     vdW  Elec       q    Type
                         _______ _______ _______ _____ _____    ______ ____

>  <TORSDO>
F 8

>  <minimizedAffinity>
-7.7064657392118825

$$$$
ZINC61609107
 OpenBabel10211215213D

 24 24  0  0  1  0  0  0  0  0999 V2000
   48.4920   52.3810   16.9750 C   0  0  0  0  0  0  0  0  0  0  0  0
   49.0090   52.7840   18.1520 N   0  0  0  0  0  0  0  0  0  0  0  0
   49.3100   52.1270   18.7990 H   0  0  0  0  0  0  0  0  0  0  0  0
   48.1170   53.2020   16.1630 O   0  0  0  0  0  0  0  0  0  0  0  0
   48.3800   50.9100   16.6640 C   0  0  2  0  0  0  0  0  0  0  0  0
   47.9120   50.1920   17.8570 N   0  0  0  0  0  0  0  0  0  0  0  0
   48.1040   49.2070   17.7530 H   0  0  0  0  0  0  0  0  0  0  0  0
   46.9180   50.3320   17.9650 H   0  0  0  0  0  0  0  0  0  0  0  0
   48.3910   50.5450   18.6720 H   0  0  0  0  0  0  0  0  0  0  0  0
   49.7510   50.3710   16.2500 C   0  0  0  0  0  0  0  0  0  0  0  0
   48.3650   49.8050   14.2490 C   0  0  0  0  0  0  0  0  0  0  0  0
   49.5830   49.3980   15.0810 C   0  0  0  0  0  0  0  0  0  0  0  0
   50.8360   49.4360   14.2030 C   0  0  0  0  0  0  0  0  0  0  0  0
   49.1190   54.2140   18.4530 C   0  0  0  0  0  0  0  0  0  0  0  0
   49.7040   54.3960   19.8550 C   0  0  2  0  0  0  0  0  0  0  0  0
   49.2810   55.7340   20.4040 C   0  0  0  0  0  0  0  0  0  0  0  0
   48.0960   56.3090   19.9860 C   0  0  0  0  0  0  0  0  0  0  0  0
   47.7070   57.5370   20.4890 C   0  0  0  0  0  0  0  0  0  0  0  0
   48.5050   58.1890   21.4120 C   0  0  0  0  0  0  0  0  0  0  0  0
   49.6900   57.6140   21.8300 C   0  0  0  0  0  0  0  0  0  0  0  0
   50.0760   56.3840   21.3300 C   0  0  0  0  0  0  0  0  0  0  0  0
   51.2070   54.3340   19.7840 C   0  0  0  0  0  0  0  0  0  0  0  0
   51.7890   54.7410   18.7930 O   0  0  0  0  0  0  0  0  0  0  0  0
   51.8430   53.8750   20.7200 O   0  0  0  0  0  0  0  0  0  0  0  0
  1  2  1  0  0  0  0
  2 14  1  0  0  0  0
  2  3  1  0  0  0  0
  4  1  2  0  0  0  0
  5 10  1  1  0  0  0
  5  1  1  0  0  0  0
  5  6  1  0  0  0  0
  6  8  1  0  0  0  0
  6  9  1  0  0  0  0
  7  6  1  0  0  0  0
 11 12  1  0  0  0  0
 12 10  1  0  0  0  0
 13 12  1  0  0  0  0
 15 14  1  6  0  0  0
 15 16  1  0  0  0  0
 16 21  1  0  0  0  0
 17 16  2  0  0  0  0
 17 18  1  0  0  0  0
 18 19  2  0  0  0  0
 19 20  1  0  0  0  0
 21 20  2  0  0  0  0
 22 15  1  0  0  0  0
 22 24  1  0  0  0  0
 23 22  2  0  0  0  0
M  END
>  <MODEL>
5

>  <REMARK>
  Name = ZINC61609107
                            x       y       z     vdW  Elec       q    Type
                         _______ _______ _______ _____ _____    ______ ____

>  <TORSDO>
F 8

>  <minimizedAffinity>
-7.2933301710473915

$$$$
ZINC61609107
 OpenBabel10211215213D

 24 24  0  0  1  0  0  0  0  0999 V2000
   49.1200   54.2790   18.2430 C   0  0  0  0  0  0  0  0  0  0  0  0
   48.9370   52.9510   18.1160 N   0  0  0  0  0  0  0  0  0  0  0  0
   49.4140   52.3380   18.6970 H   0  0  0  0  0  0  0  0  0  0  0  0
   48.5220   55.0470   17.5180 O   0  0  0  0  0  0  0  0  0  0  0  0
   50.0680   54.8140   19.2860 C   0  0  2  0  0  0  0  0  0  0  0  0
   49.8290   54.1290   20.5620 N   0  0  0  0  0  0  0  0  0  0  0  0
   48.9120   53.7050   20.5510 H   0  0  0  0  0  0  0  0  0  0  0  0
   49.8820   54.7960   21.3180 H   0  0  0  0  0  0  0  0  0  0  0  0
   50.5280   53.4130   20.6970 H   0  0  0  0  0  0  0  0  0  0  0  0
   49.8370   56.3160   19.4620 C   0  0  0  0  0  0  0  0  0  0  0  0
   49.6550   57.5320   21.6380 C   0  0  0  0  0  0  0  0  0  0  0  0
   48.9560   56.5560   20.6890 C   0  0  0  0  0  0  0  0  0  0  0  0
   47.6150   57.1460   20.2470 C   0  0  0  0  0  0  0  0  0  0  0  0
   48.0140   52.4320   17.1030 C   0  0  0  0  0  0  0  0  0  0  0  0
   48.5760   51.1340   16.5190 C   0  0  2  0  0  0  0  0  0  0  0  0
   47.4690   50.1170   16.4030 C   0  0  0  0  0  0  0  0  0  0  0  0
   46.4210   50.1300   17.3030 C   0  0  0  0  0  0  0  0  0  0  0  0
   45.4070   49.1970   17.1970 C   0  0  0  0  0  0  0  0  0  0  0  0
   45.4410   48.2500   16.1900 C   0  0  0  0  0  0  0  0  0  0  0  0
   46.4890   48.2370   15.2890 C   0  0  0  0  0  0  0  0  0  0  0  0
   47.5010   49.1730   15.3930 C   0  0  0  0  0  0  0  0  0  0  0  0
   49.6550   50.6010   17.4250 C   0  0  0  0  0  0  0  0  0  0  0  0
   49.3560   49.9840   18.4330 O   0  0  0  0  0  0  0  0  0  0  0  0
   50.8290   50.7890   17.1500 O   0  0  0  0  0  0  0  0  0  0  0  0
  2  1  1  0  0  0  0
  2  3  1  0  0  0  0
  4  1  2  0  0  0  0
  5  1  1  1  0  0  0
  5 10  1  0  0  0  0
  5  6  1  0  0  0  0
  6  9  1  0  0  0  0
  6  8  1  0  0  0  0
  7  6  1  0  0  0  0
 10 12  1  0  0  0  0
 12 11  1  0  0  0  0
 13 12  1  0  0  0  0
 14  2  1  0  0  0  0
 15 16  1  1  0  0  0
 15 14  1  0  0  0  0
 15 22  1  0  0  0  0
 16 17  2  0  0  0  0
 18 17  1  0  0  0  0
 19 18  2  0  0  0  0
 20 21  2  0  0  0  0
 20 19  1  0  0  0  0
 21 16  1  0  0  0  0
 22 23  1  0  0  0  0
 24 22  2  0  0  0  0
M  END
>  <MODEL>
6

>  <REMARK>
  Name = ZINC61609107
                            x       y       z     vdW  Elec       q    Type
                         _______ _______ _______ _____ _____    ______ ____

>  <TORSDO>
F 8

>  <minimizedAffinity>
-7.1171316728008147

$$$$
ZINC61609107
 OpenBabel10211215213D

 24 24  0  0  1  0  0  0  0  0999 V2000
   50.5060   52.2440   18.3490 C   0  0  0  0  0  0  0  0  0  0  0  0
   49.3050   51.7500   17.9890 N   0  0  0  0  0  0  0  0  0  0  0  0
   48.5220   52.3230   18.0000 H   0  0  0  0  0  0  0  0  0  0  0  0
   51.4850   51.5280   18.3340 O   0  0  0  0  0  0  0  0  0  0  0  0
   50.6330   53.6860   18.7680 C   0  0  2  0  0  0  0  0  0  0  0  0
   52.0520   54.0240   18.9330 N   0  0  0  0  0  0  0  0  0  0  0  0
   52.1380   54.9930   19.2040 H   0  0  0  0  0  0  0  0  0  0  0  0
   52.5380   53.8740   18.0610 H   0  0  0  0  0  0  0  0  0  0  0  0
   52.4570   53.4380   19.6480 H   0  0  0  0  0  0  0  0  0  0  0  0
   49.9010   53.8970   20.0960 C   0  0  0  0  0  0  0  0  0  0  0  0
   49.5100   56.2860   20.7150 C   0  0  0  0  0  0  0  0  0  0  0  0
   48.9400   55.0800   19.9650 C   0  0  0  0  0  0  0  0  0  0  0  0
   48.7650   55.4340   18.4870 C   0  0  0  0  0  0  0  0  0  0  0  0
   49.1810   50.3480   17.5800 C   0  0  0  0  0  0  0  0  0  0  0  0
   47.9740   50.1920   16.6530 C   0  0  2  0  0  0  0  0  0  0  0  0
   46.9390   49.3240   17.3190 C   0  0  0  0  0  0  0  0  0  0  0  0
   47.2380   48.6780   18.5040 C   0  0  0  0  0  0  0  0  0  0  0  0
   46.2880   47.8800   19.1160 C   0  0  0  0  0  0  0  0  0  0  0  0
   45.0390   47.7290   18.5410 C   0  0  0  0  0  0  0  0  0  0  0  0
   44.7400   48.3750   17.3560 C   0  0  0  0  0  0  0  0  0  0  0  0
   45.6890   49.1750   16.7480 C   0  0  0  0  0  0  0  0  0  0  0  0
   48.4130   49.5520   15.3610 C   0  0  0  0  0  0  0  0  0  0  0  0
   48.2290   50.1280   14.3020 O   0  0  0  0  0  0  0  0  0  0  0  0
   48.9510   48.4580   15.3760 O   0  0  0  0  0  0  0  0  0  0  0  0
  2  3  1  0  0  0  0
  2  1  1  0  0  0  0
  4  1  2  0  0  0  0
  5  1  1  1  0  0  0
  5  6  1  0  0  0  0
  5 10  1  0  0  0  0
  6  7  1  0  0  0  0
  6  9  1  0  0  0  0
  8  6  1  0  0  0  0
 12 10  1  0  0  0  0
 12 11  1  0  0  0  0
 13 12  1  0  0  0  0
 14  2  1  0  0  0  0
 15 22  1  1  0  0  0
 15 16  1  0  0  0  0
 15 14  1  0  0  0  0
 16 17  1  0  0  0  0
 17 18  2  0  0  0  0
 19 18  1  0  0  0  0
 20 19  2  0  0  0  0
 21 16  2  0  0  0  0
 21 20  1  0  0  0  0
 22 24  1  0  0  0  0
 23 22  2  0  0  0  0
M  END
>  <MODEL>
7

>  <REMARK>
  Name = ZINC61609107
                            x       y       z     vdW  Elec       q    Type
                         _______ _______ _______ _____ _____    ______ ____

>  <TORSDO>
F 8

>  <minimizedAffinity>
-7.011503870266508

$$$$
ZINC61609107
 OpenBabel10211215213D

 24 24  0  0  1  0  0  0  0  0999 V2000
   50.3950   51.3910   17.7830 C   0  0  0  0  0  0  0  0  0  0  0  0
   49.6560   50.3190   17.4370 N   0  0  0  0  0  0  0  0  0  0  0  0
   50.0780   49.4510   17.3390 H   0  0  0  0  0  0  0  0  0  0  0  0
   49.8670   52.4770   17.9060 O   0  0  0  0  0  0  0  0  0  0  0  0
   51.8760   51.2430   18.0170 C   0  0  2  0  0  0  0  0  0  0  0  0
   52.5160   50.7320   16.7980 N   0  0  0  0  0  0  0  0  0  0  0  0
   52.3550   51.3770   16.0370 H   0  0  0  0  0  0  0  0  0  0  0  0
   52.1250   49.8310   16.5640 H   0  0  0  0  0  0  0  0  0  0  0  0
   53.5090   50.6370   16.9530 H   0  0  0  0  0  0  0  0  0  0  0  0
   52.1140   50.2620   19.1670 C   0  0  0  0  0  0  0  0  0  0  0  0
   50.6070   49.3780   20.9530 C   0  0  0  0  0  0  0  0  0  0  0  0
   51.2260   50.6420   20.3530 C   0  0  0  0  0  0  0  0  0  0  0  0
   52.0700   51.3510   21.4150 C   0  0  0  0  0  0  0  0  0  0  0  0
   48.2150   50.4630   17.2100 C   0  0  0  0  0  0  0  0  0  0  0  0
   47.8510   49.8710   15.8470 C   0  0  2  0  0  0  0  0  0  0  0  0
   46.5940   49.0510   15.9760 C   0  0  0  0  0  0  0  0  0  0  0  0
   45.9110   49.0170   17.1770 C   0  0  0  0  0  0  0  0  0  0  0  0
   44.7580   48.2640   17.2960 C   0  0  0  0  0  0  0  0  0  0  0  0
   44.2880   47.5440   16.2130 C   0  0  0  0  0  0  0  0  0  0  0  0
   44.9710   47.5780   15.0120 C   0  0  0  0  0  0  0  0  0  0  0  0
   46.1210   48.3350   14.8920 C   0  0  0  0  0  0  0  0  0  0  0  0
   48.9770   48.9950   15.3630 C   0  0  0  0  0  0  0  0  0  0  0  0
   49.7340   49.3970   14.4960 O   0  0  0  0  0  0  0  0  0  0  0  0
   49.1310   47.8820   15.8400 O   0  0  0  0  0  0  0  0  0  0  0  0
  1  4  2  0  0  0  0
  1  5  1  0  0  0  0
  2  1  1  0  0  0  0
  3  2  1  0  0  0  0
  5  6  1  6  0  0  0
  5 10  1  0  0  0  0
  6  9  1  0  0  0  0
  7  6  1  0  0  0  0
  8  6  1  0  0  0  0
 10 12  1  0  0  0  0
 12 11  1  0  0  0  0
 12 13  1  0  0  0  0
 14  2  1  0  0  0  0
 15 22  1  1  0  0  0
 15 16  1  0  0  0  0
 15 14  1  0  0  0  0
 16 17  2  0  0  0  0
 17 18  1  0  0  0  0
 19 18  2  0  0  0  0
 20 19  1  0  0  0  0
 21 20  2  0  0  0  0
 21 16  1  0  0  0  0
 22 24  1  0  0  0  0
 23 22  2  0  0  0  0
M  END
>  <MODEL>
8

>  <REMARK>
  Name = ZINC61609107
                            x       y       z     vdW  Elec       q    Type
                         _______ _______ _______ _____ _____    ______ ____

>  <TORSDO>
F 8

>  <minimizedAffinity>
-6.9843219352090866

$$$$
ZINC61609107
 OpenBabel10211215213D

 24 24  0  0  1  0  0  0  0  0999 V2000
   49.8100   54.6930   19.1330 C   0  0  0  0  0  0  0  0  0  0  0  0
   50.1620   53.6870   18.3090 N   0  0  0  0  0  0  0  0  0  0  0  0
   51.0990   53.5090   18.1340 H   0  0  0  0  0  0  0  0  0  0  0  0
   48.6380   54.9160   19.3540 O   0  0  0  0  0  0  0  0  0  0  0  0
   50.8730   55.5420   19.7830 C   0  0  2  0  0  0  0  0  0  0  0  0
   52.1940   55.1410   19.2830 N   0  0  0  0  0  0  0  0  0  0  0  0
   52.8050   54.9480   20.0630 H   0  0  0  0  0  0  0  0  0  0  0  0
   52.5840   55.8870   18.7260 H   0  0  0  0  0  0  0  0  0  0  0  0
   52.1010   54.3120   18.7150 H   0  0  0  0  0  0  0  0  0  0  0  0
   50.8220   55.3490   21.3000 C   0  0  0  0  0  0  0  0  0  0  0  0
   51.9270   57.5710   21.5950 C   0  0  0  0  0  0  0  0  0  0  0  0
   50.7200   56.7140   21.9840 C   0  0  0  0  0  0  0  0  0  0  0  0
   49.4330   57.4130   21.5390 C   0  0  0  0  0  0  0  0  0  0  0  0
   49.1280   52.8610   17.6790 C   0  0  0  0  0  0  0  0  0  0  0  0
   49.6200   51.4150   17.5820 C   0  0  2  0  0  0  0  0  0  0  0  0
   48.4540   50.4760   17.7560 C   0  0  0  0  0  0  0  0  0  0  0  0
   48.5830   49.3550   18.5540 C   0  0  0  0  0  0  0  0  0  0  0  0
   47.5130   48.4930   18.7130 C   0  0  0  0  0  0  0  0  0  0  0  0
   46.3150   48.7540   18.0730 C   0  0  0  0  0  0  0  0  0  0  0  0
   46.1870   49.8750   17.2750 C   0  0  0  0  0  0  0  0  0  0  0  0
   47.2550   50.7380   17.1200 C   0  0  0  0  0  0  0  0  0  0  0  0
   50.6380   51.1580   18.6620 C   0  0  0  0  0  0  0  0  0  0  0  0
   50.3360   51.3070   19.8340 O   0  0  0  0  0  0  0  0  0  0  0  0
   51.7660   50.8010   18.3640 O   0  0  0  0  0  0  0  0  0  0  0  0
  1  4  2  0  0  0  0
  2  1  1  0  0  0  0
  3  2  1  0  0  0  0
  5  1  1  1  0  0  0
  5 10  1  0  0  0  0
  6  5  1  0  0  0  0
  6  7  1  0  0  0  0
  8  6  1  0  0  0  0
  9  6  1  0  0  0  0
 10 12  1  0  0  0  0
 11 12  1  0  0  0  0
 13 12  1  0  0  0  0
 14  2  1  0  0  0  0
 15 14  1  1  0  0  0
 15 16  1  0  0  0  0
 15 22  1  0  0  0  0
 16 17  2  0  0  0  0
 17 18  1  0  0  0  0
 19 18  2  0  0  0  0
 20 19  1  0  0  0  0
 21 20  2  0  0  0  0
 21 16  1  0  0  0  0
 22 23  1  0  0  0  0
 24 22  2  0  0  0  0
M  END
>  <MODEL>
9

>  <REMARK>
  Name = ZINC61609107
                            x       y       z     vdW  Elec       q    Type
                         _______ _______ _______ _____ _____    ______ ____

>  <TORSDO>
F 8

>  <minimizedAffinity>
-6.966795115509135

$$$$
ZINC45548995
 OpenBabel10211215223D

 24 24  0  0  1  0  0  0  0  0999 V2000
   50.9420   50.3790   19.7120 C   0  0  2  0  0  0  0  0  0  0  0  0
   50.4730   51.5020   18.7840 C   0  0  0  0  0  0  0  0  0  0  0  0
   52.3180   49.9260   19.2970 C   0  0  0  0  0  0  0  0  0  0  0  0
   52.8910   48.8680   19.9030 N   0  0  0  0  0  0  0  0  0  0  0  0
   53.7770   48.5760   19.6360 H   0  0  0  0  0  0  0  0  0  0  0  0
   52.4170   48.3970   20.6060 H   0  0  0  0  0  0  0  0  0  0  0  0
   52.9110   50.5150   18.4170 O   0  0  0  0  0  0  0  0  0  0  0  0
   50.0080   49.2490   19.6240 N   0  0  0  0  0  0  0  0  0  0  0  0
   50.5260   48.3930   19.4950 H   0  0  0  0  0  0  0  0  0  0  0  0
   49.4690   49.1910   20.4750 H   0  0  0  0  0  0  0  0  0  0  0  0
   47.7520   48.7980   18.7860 C   0  0  0  0  0  0  0  0  0  0  0  0
   49.1030   49.4500   18.4840 C   0  0  0  0  0  0  0  0  0  0  0  0
   50.9870   50.8930   21.1530 C   0  0  0  0  0  0  0  0  0  0  0  0
   51.9460   52.0820   21.2410 C   0  0  0  0  0  0  0  0  0  0  0  0
   51.2880   53.2090   22.0380 C   0  0  0  0  0  0  0  0  0  0  0  0
   51.8230   54.8110   21.3750 S   0  0  0  0  0  0  0  0  0  0  0  0
   50.3170   55.6420   20.9970 C   0  0  0  0  0  0  0  0  0  0  0  0
   49.4970   55.1220   20.1040 N   0  0  0  0  0  0  0  0  0  0  0  0
   48.3490   55.7170   19.7890 C   0  0  0  0  0  0  0  0  0  0  0  0
   47.9970   56.8910   20.3930 C   0  0  0  0  0  0  0  0  0  0  0  0
   48.8640   57.4510   21.3460 C   0  0  0  0  0  0  0  0  0  0  0  0
   48.5820   58.4980   21.9040 O   0  0  0  0  0  0  0  0  0  0  0  0
   50.0150   56.8060   21.6350 N   0  0  0  0  0  0  0  0  0  0  0  0
   50.6270   57.1740   22.2930 H   0  0  0  0  0  0  0  0  0  0  0  0
  1  2  1  6  0  0  0
  1 13  1  0  0  0  0
  3  1  1  0  0  0  0
  3  4  1  0  0  0  0
  4  6  1  0  0  0  0
  5  4  1  0  0  0  0
  7  3  2  0  0  0  0
  8  1  1  0  0  0  0
  8 10  1  0  0  0  0
  9  8  1  0  0  0  0
 12 11  1  0  0  0  0
 12  8  1  0  0  0  0
 13 14  1  0  0  0  0
 14 15  1  0  0  0  0
 16 15  1  0  0  0  0
 17 16  1  0  0  0  0
 17 23  1  0  0  0  0
 18 17  2  0  0  0  0
 19 18  1  0  0  0  0
 19 20  2  0  0  0  0
 20 21  1  0  0  0  0
 21 23  1  0  0  0  0
 21 22  2  0  0  0  0
 23 24  1  0  0  0  0
M  END
>  <MODEL>
1

>  <REMARK>
  Name = ZINC45548995
                            x       y       z     vdW  Elec       q    Type
                         _______ _______ _______ _____ _____    ______ ____

>  <TORSDO>
F 8

>  <minimizedAffinity>
-6.6828675276704921

$$$$
ZINC45548995
 OpenBabel10211215223D

 24 24  0  0  1  0  0  0  0  0999 V2000
   51.5890   51.0570   20.1640 C   0  0  2  0  0  0  0  0  0  0  0  0
   52.7270   51.7150   19.3810 C   0  0  0  0  0  0  0  0  0  0  0  0
   51.7580   49.5600   20.1340 C   0  0  0  0  0  0  0  0  0  0  0  0
   52.9150   49.0200   19.7040 N   0  0  0  0  0  0  0  0  0  0  0  0
   53.0230   48.0570   19.6850 H   0  0  0  0  0  0  0  0  0  0  0  0
   53.6390   49.5950   19.4130 H   0  0  0  0  0  0  0  0  0  0  0  0
   50.8510   48.8400   20.4990 O   0  0  0  0  0  0  0  0  0  0  0  0
   50.3020   51.4170   19.5530 N   0  0  0  0  0  0  0  0  0  0  0  0
   49.5740   50.8320   19.9340 H   0  0  0  0  0  0  0  0  0  0  0  0
   50.0950   52.3850   19.7510 H   0  0  0  0  0  0  0  0  0  0  0  0
   49.1350   50.4690   17.6210 C   0  0  0  0  0  0  0  0  0  0  0  0
   50.3790   51.2200   18.1000 C   0  0  0  0  0  0  0  0  0  0  0  0
   51.6190   51.5450   21.6150 C   0  0  0  0  0  0  0  0  0  0  0  0
   50.7110   52.7670   21.7610 C   0  0  0  0  0  0  0  0  0  0  0  0
   51.5560   53.9890   22.1260 C   0  0  0  0  0  0  0  0  0  0  0  0
   50.7560   55.4890   21.4910 S   0  0  0  0  0  0  0  0  0  0  0  0
   52.0820   56.6340   21.3060 C   0  0  0  0  0  0  0  0  0  0  0  0
   53.0820   56.3410   20.4950 N   0  0  0  0  0  0  0  0  0  0  0  0
   54.1020   57.1780   20.3260 C   0  0  0  0  0  0  0  0  0  0  0  0
   54.1320   58.3670   20.9970 C   0  0  0  0  0  0  0  0  0  0  0  0
   53.0710   58.6870   21.8610 C   0  0  0  0  0  0  0  0  0  0  0  0
   53.0660   59.7410   22.4760 O   0  0  0  0  0  0  0  0  0  0  0  0
   52.0550   57.8070   21.9950 N   0  0  0  0  0  0  0  0  0  0  0  0
   51.3110   58.0100   22.5840 H   0  0  0  0  0  0  0  0  0  0  0  0
  1  2  1  6  0  0  0
  1 13  1  0  0  0  0
  3  1  1  0  0  0  0
  3  7  2  0  0  0  0
  4  3  1  0  0  0  0
  5  4  1  0  0  0  0
  6  4  1  0  0  0  0
  8 10  1  0  0  0  0
  8  9  1  0  0  0  0
  8  1  1  0  0  0  0
 11 12  1  0  0  0  0
 12  8  1  0  0  0  0
 13 14  1  0  0  0  0
 14 15  1  0  0  0  0
 16 15  1  0  0  0  0
 17 16  1  0  0  0  0
 17 23  1  0  0  0  0
 18 17  2  0  0  0  0
 19 18  1  0  0  0  0
 19 20  2  0  0  0  0
 20 21  1  0  0  0  0
 21 23  1  0  0  0  0
 21 22  2  0  0  0  0
 23 24  1  0  0  0  0
M  END
>  <MODEL>
2

>  <REMARK>
  Name = ZINC45548995
                            x       y       z     vdW  Elec       q    Type
                         _______ _______ _______ _____ _____    ______ ____

>  <TORSDO>
F 8

>  <minimizedAffinity>
-6.5174994352747397

$$$$
ZINC45548995
 OpenBabel10211215223D

 24 24  0  0  1  0  0  0  0  0999 V2000
   51.7620   56.9120   21.6740 C   0  0  2  0  0  0  0  0  0  0  0  0
   51.7690   55.7710   22.6930 C   0  0  0  0  0  0  0  0  0  0  0  0
   52.9930   57.7610   21.8600 C   0  0  0  0  0  0  0  0  0  0  0  0
   52.8740   59.0410   22.2630 N   0  0  0  0  0  0  0  0  0  0  0  0
   53.6670   59.5880   22.3830 H   0  0  0  0  0  0  0  0  0  0  0  0
   51.9970   59.4160   22.4330 H   0  0  0  0  0  0  0  0  0  0  0  0
   54.0920   57.2910   21.6470 O   0  0  0  0  0  0  0  0  0  0  0  0
   50.5630   57.7380   21.8710 N   0  0  0  0  0  0  0  0  0  0  0  0
   50.0370   57.3850   22.6560 H   0  0  0  0  0  0  0  0  0  0  0  0
   50.8390   58.6920   22.0520 H   0  0  0  0  0  0  0  0  0  0  0  0
   48.2540   57.7280   21.0580 C   0  0  0  0  0  0  0  0  0  0  0  0
   49.7310   57.6910   20.6620 C   0  0  0  0  0  0  0  0  0  0  0  0
   51.7530   56.3310   20.2580 C   0  0  0  0  0  0  0  0  0  0  0  0
   52.0080   54.8240   20.3240 C   0  0  0  0  0  0  0  0  0  0  0  0
   51.4450   54.1560   19.0680 C   0  0  0  0  0  0  0  0  0  0  0  0
   52.4140   52.6700   18.6870 S   0  0  0  0  0  0  0  0  0  0  0  0
   51.2490   51.3560   18.8190 C   0  0  0  0  0  0  0  0  0  0  0  0
   50.2760   51.2600   17.9330 N   0  0  0  0  0  0  0  0  0  0  0  0
   49.3760   50.2820   17.9970 C   0  0  0  0  0  0  0  0  0  0  0  0
   49.4450   49.3510   18.9930 C   0  0  0  0  0  0  0  0  0  0  0  0
   50.4780   49.4440   19.9410 C   0  0  0  0  0  0  0  0  0  0  0  0
   50.5700   48.6290   20.8430 O   0  0  0  0  0  0  0  0  0  0  0  0
   51.3710   50.4520   19.8300 N   0  0  0  0  0  0  0  0  0  0  0  0
   52.0940   50.5330   20.4720 H   0  0  0  0  0  0  0  0  0  0  0  0
  1 13  1  6  0  0  0
  1  3  1  0  0  0  0
  1  8  1  0  0  0  0
  1  2  1  0  0  0  0
  3  4  1  0  0  0  0
  4  5  1  0  0  0  0
  4  6  1  0  0  0  0
  7  3  2  0  0  0  0
  8 10  1  0  0  0  0
  8  9  1  0  0  0  0
 12 11  1  0  0  0  0
 12  8  1  0  0  0  0
 13 14  1  0  0  0  0
 15 14  1  0  0  0  0
 16 17  1  0  0  0  0
 16 15  1  0  0  0  0
 17 23  1  0  0  0  0
 18 19  1  0  0  0  0
 18 17  2  0  0  0  0
 19 20  2  0  0  0  0
 20 21  1  0  0  0  0
 21 22  2  0  0  0  0
 23 21  1  0  0  0  0
 23 24  1  0  0  0  0
M  END
>  <MODEL>
3

>  <REMARK>
  Name = ZINC45548995
                            x       y       z     vdW  Elec       q    Type
                         _______ _______ _______ _____ _____    ______ ____

>  <TORSDO>
F 8

>  <minimizedAffinity>
-6.5008285622685333

$$$$
ZINC45548995
 OpenBabel10211215223D

 24 24  0  0  1  0  0  0  0  0999 V2000
   52.0510   56.7670   21.1320 C   0  0  2  0  0  0  0  0  0  0  0  0
   51.6710   55.8560   22.3020 C   0  0  0  0  0  0  0  0  0  0  0  0
   53.2580   57.5890   21.5060 C   0  0  0  0  0  0  0  0  0  0  0  0
   53.1150   58.6830   22.2800 N   0  0  0  0  0  0  0  0  0  0  0  0
   53.8920   59.2110   22.5210 H   0  0  0  0  0  0  0  0  0  0  0  0
   52.2360   58.9410   22.5960 H   0  0  0  0  0  0  0  0  0  0  0  0
   54.3590   57.2650   21.1110 O   0  0  0  0  0  0  0  0  0  0  0  0
   50.9270   57.6610   20.8220 N   0  0  0  0  0  0  0  0  0  0  0  0
   51.2170   58.6200   20.9420 H   0  0  0  0  0  0  0  0  0  0  0  0
   50.6350   57.5140   19.8670 H   0  0  0  0  0  0  0  0  0  0  0  0
   48.4910   57.4550   20.9520 C   0  0  0  0  0  0  0  0  0  0  0  0
   49.8080   57.3710   21.7270 C   0  0  0  0  0  0  0  0  0  0  0  0
   52.3770   55.9120   19.9050 C   0  0  0  0  0  0  0  0  0  0  0  0
   51.9720   54.4610   20.1720 C   0  0  0  0  0  0  0  0  0  0  0  0
   52.5320   53.5640   19.0670 C   0  0  0  0  0  0  0  0  0  0  0  0
   51.9350   51.8680   19.3040 S   0  0  0  0  0  0  0  0  0  0  0  0
   50.6970   51.6730   18.0670 C   0  0  0  0  0  0  0  0  0  0  0  0
   49.6580   52.4860   18.0560 N   0  0  0  0  0  0  0  0  0  0  0  0
   48.7010   52.3730   17.1390 C   0  0  0  0  0  0  0  0  0  0  0  0
   48.7790   51.4020   16.1820 C   0  0  0  0  0  0  0  0  0  0  0  0
   49.8830   50.5320   16.1850 C   0  0  0  0  0  0  0  0  0  0  0  0
   49.9850   49.6540   15.3450 O   0  0  0  0  0  0  0  0  0  0  0  0
   50.8310   50.6900   17.1340 N   0  0  0  0  0  0  0  0  0  0  0  0
   51.6030   50.1030   17.1520 H   0  0  0  0  0  0  0  0  0  0  0  0
  1 13  1  6  0  0  0
  1  3  1  0  0  0  0
  1  2  1  0  0  0  0
  3  4  1  0  0  0  0
  4  5  1  0  0  0  0
  4  6  1  0  0  0  0
  7  3  2  0  0  0  0
  8  9  1  0  0  0  0
  8  1  1  0  0  0  0
  8 12  1  0  0  0  0
 10  8  1  0  0  0  0
 11 12  1  0  0  0  0
 13 14  1  0  0  0  0
 15 16  1  0  0  0  0
 15 14  1  0  0  0  0
 17 16  1  0  0  0  0
 18 17  2  0  0  0  0
 19 18  1  0  0  0  0
 20 21  1  0  0  0  0
 20 19  2  0  0  0  0
 21 23  1  0  0  0  0
 22 21  2  0  0  0  0
 23 24  1  0  0  0  0
 23 17  1  0  0  0  0
M  END
>  <MODEL>
4

>  <REMARK>
  Name = ZINC45548995
                            x       y       z     vdW  Elec       q    Type
                         _______ _______ _______ _____ _____    ______ ____

>  <TORSDO>
F 8

>  <minimizedAffinity>
-6.4754014250862273

$$$$
ZINC45548995
 OpenBabel10211215223D

 24 24  0  0  1  0  0  0  0  0999 V2000
   51.1950   50.3740   19.0000 C   0  0  2  0  0  0  0  0  0  0  0  0
   51.6300   50.7120   17.5720 C   0  0  0  0  0  0  0  0  0  0  0  0
   52.4100   50.0650   19.8360 C   0  0  0  0  0  0  0  0  0  0  0  0
   52.8400   48.7940   19.9570 N   0  0  0  0  0  0  0  0  0  0  0  0
   53.6220   48.5950   20.4950 H   0  0  0  0  0  0  0  0  0  0  0  0
   52.3670   48.0780   19.5050 H   0  0  0  0  0  0  0  0  0  0  0  0
   53.0020   50.9620   20.4010 O   0  0  0  0  0  0  0  0  0  0  0  0
   50.3050   49.2050   18.9780 N   0  0  0  0  0  0  0  0  0  0  0  0
   50.8200   48.3970   18.6630 H   0  0  0  0  0  0  0  0  0  0  0  0
   49.9490   49.0360   19.9080 H   0  0  0  0  0  0  0  0  0  0  0  0
   47.8990   48.8820   18.6600 C   0  0  0  0  0  0  0  0  0  0  0  0
   49.1850   49.4610   18.0640 C   0  0  0  0  0  0  0  0  0  0  0  0
   50.4520   51.5690   19.6030 C   0  0  0  0  0  0  0  0  0  0  0  0
   50.4130   52.7110   18.5850 C   0  0  0  0  0  0  0  0  0  0  0  0
   50.5590   54.0480   19.3140 C   0  0  0  0  0  0  0  0  0  0  0  0
   52.3190   54.4660   19.4620 S   0  0  0  0  0  0  0  0  0  0  0  0
   52.3220   55.9950   20.3370 C   0  0  0  0  0  0  0  0  0  0  0  0
   53.4610   56.6380   20.5130 N   0  0  0  0  0  0  0  0  0  0  0  0
   53.5070   57.7960   21.1680 C   0  0  0  0  0  0  0  0  0  0  0  0
   52.3640   58.3430   21.6750 C   0  0  0  0  0  0  0  0  0  0  0  0
   51.1460   57.6650   21.4910 C   0  0  0  0  0  0  0  0  0  0  0  0
   50.1060   58.1260   21.9300 O   0  0  0  0  0  0  0  0  0  0  0  0
   51.1500   56.4960   20.8150 N   0  0  0  0  0  0  0  0  0  0  0  0
   50.3200   56.0140   20.6740 H   0  0  0  0  0  0  0  0  0  0  0  0
  1  2  1  6  0  0  0
  1 13  1  0  0  0  0
  1  3  1  0  0  0  0
  3  4  1  0  0  0  0
  3  7  2  0  0  0  0
  4  5  1  0  0  0  0
  6  4  1  0  0  0  0
  8  1  1  0  0  0  0
  8 10  1  0  0  0  0
  9  8  1  0  0  0  0
 12 11  1  0  0  0  0
 12  8  1  0  0  0  0
 14 15  1  0  0  0  0
 14 13  1  0  0  0  0
 15 16  1  0  0  0  0
 16 17  1  0  0  0  0
 17 18  2  0  0  0  0
 17 23  1  0  0  0  0
 18 19  1  0  0  0  0
 19 20  2  0  0  0  0
 21 20  1  0  0  0  0
 21 22  2  0  0  0  0
 23 21  1  0  0  0  0
 24 23  1  0  0  0  0
M  END
>  <MODEL>
5

>  <REMARK>
  Name = ZINC45548995
                            x       y       z     vdW  Elec       q    Type
                         _______ _______ _______ _____ _____    ______ ____

>  <TORSDO>
F 8

>  <minimizedAffinity>
-6.4509518784079889

$$$$
ZINC45548995
 OpenBabel10211215223D

 24 24  0  0  1  0  0  0  0  0999 V2000
   50.5800   50.7000   18.6970 C   0  0  2  0  0  0  0  0  0  0  0  0
   49.6630   51.7570   18.0780 C   0  0  0  0  0  0  0  0  0  0  0  0
   51.9000   50.6920   17.9710 C   0  0  0  0  0  0  0  0  0  0  0  0
   51.9290   50.7240   16.6240 N   0  0  0  0  0  0  0  0  0  0  0  0
   52.7790   50.7190   16.1570 H   0  0  0  0  0  0  0  0  0  0  0  0
   51.1000   50.7540   16.1230 H   0  0  0  0  0  0  0  0  0  0  0  0
   52.9380   50.6560   18.6000 O   0  0  0  0  0  0  0  0  0  0  0  0
   49.9500   49.3780   18.5840 N   0  0  0  0  0  0  0  0  0  0  0  0
   50.5380   48.7710   18.0340 H   0  0  0  0  0  0  0  0  0  0  0  0
   49.8270   48.9840   19.5050 H   0  0  0  0  0  0  0  0  0  0  0  0
   47.5860   48.7620   18.7470 C   0  0  0  0  0  0  0  0  0  0  0  0
   48.6410   49.5140   17.9320 C   0  0  0  0  0  0  0  0  0  0  0  0
   50.8120   51.0300   20.1740 C   0  0  0  0  0  0  0  0  0  0  0  0
   50.5290   52.5140   20.4160 C   0  0  0  0  0  0  0  0  0  0  0  0
   51.8380   53.2360   20.7390 C   0  0  0  0  0  0  0  0  0  0  0  0
   52.2000   54.4430   19.4340 S   0  0  0  0  0  0  0  0  0  0  0  0
   52.2620   55.9850   20.2830 C   0  0  0  0  0  0  0  0  0  0  0  0
   51.1790   56.4370   20.8860 N   0  0  0  0  0  0  0  0  0  0  0  0
   51.1830   57.5960   21.5390 C   0  0  0  0  0  0  0  0  0  0  0  0
   52.3220   58.3470   21.5960 C   0  0  0  0  0  0  0  0  0  0  0  0
   53.4810   57.8730   20.9580 C   0  0  0  0  0  0  0  0  0  0  0  0
   54.5160   58.5170   20.9890 O   0  0  0  0  0  0  0  0  0  0  0  0
   53.4280   56.6880   20.3130 N   0  0  0  0  0  0  0  0  0  0  0  0
   54.2180   56.3400   19.8680 H   0  0  0  0  0  0  0  0  0  0  0  0
  1  3  1  6  0  0  0
  1 13  1  0  0  0  0
  2  1  1  0  0  0  0
  3  7  2  0  0  0  0
  4  3  1  0  0  0  0
  5  4  1  0  0  0  0
  6  4  1  0  0  0  0
  8  1  1  0  0  0  0
  8 10  1  0  0  0  0
  9  8  1  0  0  0  0
 12  8  1  0  0  0  0
 12 11  1  0  0  0  0
 13 14  1  0  0  0  0
 14 15  1  0  0  0  0
 16 17  1  0  0  0  0
 16 15  1  0  0  0  0
 17 23  1  0  0  0  0
 17 18  2  0  0  0  0
 18 19  1  0  0  0  0
 19 20  2  0  0  0  0
 21 22  2  0  0  0  0
 21 20  1  0  0  0  0
 23 21  1  0  0  0  0
 24 23  1  0  0  0  0
M  END
>  <MODEL>
6

>  <REMARK>
  Name = ZINC45548995
                            x       y       z     vdW  Elec       q    Type
                         _______ _______ _______ _____ _____    ______ ____

>  <TORSDO>
F 8

>  <minimizedAffinity>
-6.3972264603126741

$$$$
ZINC45548995
 OpenBabel10211215223D

 24 24  0  0  1  0  0  0  0  0999 V2000
   51.3660   52.8630   20.0430 C   0  0  2  0  0  0  0  0  0  0  0  0
   52.4940   53.3210   19.1160 C   0  0  0  0  0  0  0  0  0  0  0  0
   51.7480   53.1390   21.4740 C   0  0  0  0  0  0  0  0  0  0  0  0
   51.8250   52.1250   22.3580 N   0  0  0  0  0  0  0  0  0  0  0  0
   52.0710   52.3030   23.2800 H   0  0  0  0  0  0  0  0  0  0  0  0
   51.6360   51.2180   22.0740 H   0  0  0  0  0  0  0  0  0  0  0  0
   51.9860   54.2740   21.8300 O   0  0  0  0  0  0  0  0  0  0  0  0
   51.1410   51.4220   19.8650 N   0  0  0  0  0  0  0  0  0  0  0  0
   51.1370   50.9690   20.7660 H   0  0  0  0  0  0  0  0  0  0  0  0
   50.2520   51.2750   19.4100 H   0  0  0  0  0  0  0  0  0  0  0  0
   52.8180   49.6420   19.7440 C   0  0  0  0  0  0  0  0  0  0  0  0
   52.2140   50.8570   19.0370 C   0  0  0  0  0  0  0  0  0  0  0  0
   50.0840   53.6260   19.7010 C   0  0  0  0  0  0  0  0  0  0  0  0
   49.8940   53.6490   18.1830 C   0  0  0  0  0  0  0  0  0  0  0  0
   48.4050   53.5260   17.8540 C   0  0  0  0  0  0  0  0  0  0  0  0
   48.1800   52.3350   16.5040 S   0  0  0  0  0  0  0  0  0  0  0  0
   47.7820   50.8280   17.3250 C   0  0  0  0  0  0  0  0  0  0  0  0
   48.6850   50.2520   18.0950 N   0  0  0  0  0  0  0  0  0  0  0  0
   48.4250   49.1140   18.7340 C   0  0  0  0  0  0  0  0  0  0  0  0
   47.2040   48.5160   18.6000 C   0  0  0  0  0  0  0  0  0  0  0  0
   46.2360   49.1230   17.7820 C   0  0  0  0  0  0  0  0  0  0  0  0
   45.1360   48.6170   17.6410 O   0  0  0  0  0  0  0  0  0  0  0  0
   46.5460   50.2810   17.1600 N   0  0  0  0  0  0  0  0  0  0  0  0
   45.8910   50.7190   16.5930 H   0  0  0  0  0  0  0  0  0  0  0  0
  1  2  1  6  0  0  0
  1  3  1  0  0  0  0
  3  7  2  0  0  0  0
  3  4  1  0  0  0  0
  4  5  1  0  0  0  0
  6  4  1  0  0  0  0
  8  1  1  0  0  0  0
  8  9  1  0  0  0  0
 10  8  1  0  0  0  0
 12 11  1  0  0  0  0
 12  8  1  0  0  0  0
 13  1  1  0  0  0  0
 14 13  1  0  0  0  0
 15 14  1  0  0  0  0
 16 17  1  0  0  0  0
 16 15  1  0  0  0  0
 17 18  2  0  0  0  0
 18 19  1  0  0  0  0
 20 19  2  0  0  0  0
 21 20  1  0  0  0  0
 22 21  2  0  0  0  0
 23 17  1  0  0  0  0
 23 21  1  0  0  0  0
 24 23  1  0  0  0  0
M  END
>  <MODEL>
7

>  <REMARK>
  Name = ZINC45548995
                            x       y       z     vdW  Elec       q    Type
                         _______ _______ _______ _____ _____    ______ ____

>  <TORSDO>
F 8

>  <minimizedAffinity>
-6.2792237607277652

$$$$
ZINC45548995
 OpenBabel10211215223D

 24 24  0  0  1  0  0  0  0  0999 V2000
   49.6950   50.7720   17.8330 C   0  0  2  0  0  0  0  0  0  0  0  0
   48.6450   49.6580   17.8410 C   0  0  0  0  0  0  0  0  0  0  0  0
   49.0130   52.1040   17.6510 C   0  0  0  0  0  0  0  0  0  0  0  0
   47.6970   52.1540   17.3670 N   0  0  0  0  0  0  0  0  0  0  0  0
   47.2590   53.0120   17.2510 H   0  0  0  0  0  0  0  0  0  0  0  0
   47.1880   51.3340   17.2800 H   0  0  0  0  0  0  0  0  0  0  0  0
   49.6500   53.1310   17.7610 O   0  0  0  0  0  0  0  0  0  0  0  0
   50.6370   50.5490   16.7270 N   0  0  0  0  0  0  0  0  0  0  0  0
   51.1560   51.3960   16.5520 H   0  0  0  0  0  0  0  0  0  0  0  0
   51.2750   49.8070   16.9740 H   0  0  0  0  0  0  0  0  0  0  0  0
   50.8660   49.6410   14.4650 C   0  0  0  0  0  0  0  0  0  0  0  0
   49.8920   50.1720   15.5190 C   0  0  0  0  0  0  0  0  0  0  0  0
   50.4560   50.7660   19.1610 C   0  0  0  0  0  0  0  0  0  0  0  0
   51.9600   50.8300   18.8870 C   0  0  0  0  0  0  0  0  0  0  0  0
   52.6210   51.7730   19.8930 C   0  0  0  0  0  0  0  0  0  0  0  0
   51.5560   51.9440   21.3510 S   0  0  0  0  0  0  0  0  0  0  0  0
   51.1620   53.6610   21.3930 C   0  0  0  0  0  0  0  0  0  0  0  0
   51.8760   54.4710   22.1520 N   0  0  0  0  0  0  0  0  0  0  0  0
   51.6120   55.7740   22.2120 C   0  0  0  0  0  0  0  0  0  0  0  0
   50.5850   56.3000   21.4800 C   0  0  0  0  0  0  0  0  0  0  0  0
   49.8210   55.4440   20.6690 C   0  0  0  0  0  0  0  0  0  0  0  0
   48.8970   55.8800   20.0030 O   0  0  0  0  0  0  0  0  0  0  0  0
   50.1310   54.1300   20.6380 N   0  0  0  0  0  0  0  0  0  0  0  0
   49.6190   53.5230   20.0810 H   0  0  0  0  0  0  0  0  0  0  0  0
  1  8  1  6  0  0  0
  1  2  1  0  0  0  0
  1 13  1  0  0  0  0
  3  7  2  0  0  0  0
  3  1  1  0  0  0  0
  4  3  1  0  0  0  0
  5  4  1  0  0  0  0
  6  4  1  0  0  0  0
  8 10  1  0  0  0  0
  9  8  1  0  0  0  0
 11 12  1  0  0  0  0
 12  8  1  0  0  0  0
 14 13  1  0  0  0  0
 14 15  1  0  0  0  0
 15 16  1  0  0  0  0
 16 17  1  0  0  0  0
 17 18  2  0  0  0  0
 18 19  1  0  0  0  0
 20 19  2  0  0  0  0
 21 20  1  0  0  0  0
 22 21  2  0  0  0  0
 23 21  1  0  0  0  0
 23 17  1  0  0  0  0
 24 23  1  0  0  0  0
M  END
>  <MODEL>
8

>  <REMARK>
  Name = ZINC45548995
                            x       y       z     vdW  Elec       q    Type
                         _______ _______ _______ _____ _____    ______ ____

>  <TORSDO>
F 8

>  <minimizedAffinity>
-6.2484773931056949

$$$$
ZINC45548995
 OpenBabel10211215223D

 24 24  0  0  1  0  0  0  0  0999 V2000
   49.2610   50.3500   17.3520 C   0  0  2  0  0  0  0  0  0  0  0  0
   47.7480   50.1260   17.3940 C   0  0  0  0  0  0  0  0  0  0  0  0
   49.7450   50.2520   15.9290 C   0  0  0  0  0  0  0  0  0  0  0  0
   51.0670   50.2400   15.6660 N   0  0  0  0  0  0  0  0  0  0  0  0
   51.3780   50.1770   14.7490 H   0  0  0  0  0  0  0  0  0  0  0  0
   51.7060   50.2940   16.3920 H   0  0  0  0  0  0  0  0  0  0  0  0
   48.9450   50.1840   15.0190 O   0  0  0  0  0  0  0  0  0  0  0  0
   49.9300   49.3280   18.1680 N   0  0  0  0  0  0  0  0  0  0  0  0
   49.2460   48.6700   18.5100 H   0  0  0  0  0  0  0  0  0  0  0  0
   50.6130   48.8420   17.6050 H   0  0  0  0  0  0  0  0  0  0  0  0
   50.4350   49.1040   20.5540 C   0  0  0  0  0  0  0  0  0  0  0  0
   50.6020   49.9720   19.3050 C   0  0  0  0  0  0  0  0  0  0  0  0
   49.5860   51.7390   17.9070 C   0  0  0  0  0  0  0  0  0  0  0  0
   48.4530   52.7060   17.5560 C   0  0  0  0  0  0  0  0  0  0  0  0
   48.7910   54.1000   18.0870 C   0  0  0  0  0  0  0  0  0  0  0  0
   49.9030   53.9510   19.5130 S   0  0  0  0  0  0  0  0  0  0  0  0
   49.6810   55.4630   20.3880 C   0  0  0  0  0  0  0  0  0  0  0  0
   50.6180   55.8730   21.2220 N   0  0  0  0  0  0  0  0  0  0  0  0
   50.4890   57.0090   21.9020 C   0  0  0  0  0  0  0  0  0  0  0  0
   49.3720   57.7780   21.7480 C   0  0  0  0  0  0  0  0  0  0  0  0
   48.3690   57.3500   20.8620 C   0  0  0  0  0  0  0  0  0  0  0  0
   47.3580   58.0120   20.6990 O   0  0  0  0  0  0  0  0  0  0  0  0
   48.5480   56.1920   20.1890 N   0  0  0  0  0  0  0  0  0  0  0  0
   47.8700   55.8790   19.5700 H   0  0  0  0  0  0  0  0  0  0  0  0
  1  3  1  6  0  0  0
  1  2  1  0  0  0  0
  1 13  1  0  0  0  0
  1  8  1  0  0  0  0
  4  3  1  0  0  0  0
  4  6  1  0  0  0  0
  5  4  1  0  0  0  0
  7  3  2  0  0  0  0
  8  9  1  0  0  0  0
  8 12  1  0  0  0  0
 10  8  1  0  0  0  0
 12 11  1  0  0  0  0
 14 13  1  0  0  0  0
 14 15  1  0  0  0  0
 15 16  1  0  0  0  0
 16 17  1  0  0  0  0
 17 18  2  0  0  0  0
 18 19  1  0  0  0  0
 20 19  2  0  0  0  0
 21 20  1  0  0  0  0
 22 21  2  0  0  0  0
 23 17  1  0  0  0  0
 23 21  1  0  0  0  0
 24 23  1  0  0  0  0
M  END
>  <MODEL>
9

>  <REMARK>
  Name = ZINC45548995
                            x       y       z     vdW  Elec       q    Type
                         _______ _______ _______ _____ _____    ______ ____

>  <TORSDO>
F 8

>  <minimizedAffinity>
-6.2157546204017917

$$$$
ZINC22690524
 OpenBabel10211215233D

 23 23  0  0  0  0  0  0  0  0999 V2000
   52.1770   53.6270   19.2360 C   0  0  0  0  0  0  0  0  0  0  0  0
   51.2970   52.7540   19.7660 N   0  0  0  0  0  0  0  0  0  0  0  0
   50.6430   53.0680   20.5940 H   0  0  0  0  0  0  0  0  0  0  0  0
   51.2180   51.4990   19.2850 C   0  0  0  0  0  0  0  0  0  0  0  0
   50.3390   50.6270   19.8150 N   0  0  0  0  0  0  0  0  0  0  0  0
   49.6840   50.9410   20.6420 H   0  0  0  0  0  0  0  0  0  0  0  0
   51.9400   51.1530   18.3700 O   0  0  0  0  0  0  0  0  0  0  0  0
   52.8970   53.2810   18.3240 O   0  0  0  0  0  0  0  0  0  0  0  0
   52.2650   55.0310   19.7760 C   0  0  0  0  0  0  0  0  0  0  0  0
   51.4040   55.1540   20.9560 N   0  0  0  0  0  0  0  0  0  0  0  0
   51.6550   54.6120   21.8790 H   0  0  0  0  0  0  0  0  0  0  0  0
   50.1840   57.0990   21.7030 C   0  0  0  0  0  0  0  0  0  0  0  0
   49.0590   57.8990   21.6500 C   0  0  0  0  0  0  0  0  0  0  0  0
   48.0080   57.5640   20.8140 C   0  0  0  0  0  0  0  0  0  0  0  0
   46.9070   58.3450   20.7670 F   0  0  0  0  0  0  0  0  0  0  0  0
   48.0840   56.4280   20.0240 C   0  0  0  0  0  0  0  0  0  0  0  0
   49.2090   55.6290   20.0700 C   0  0  0  0  0  0  0  0  0  0  0  0
   50.2650   55.9620   20.9080 C   0  0  0  0  0  0  0  0  0  0  0  0
   50.2530   49.2620   19.2900 C   0  0  0  0  0  0  0  0  0  0  0  0
   48.9110   49.0730   18.5790 C   0  0  0  0  0  0  0  0  0  0  0  0
   48.5250   50.2780   17.9810 F   0  0  0  0  0  0  0  0  0  0  0  0
   47.9420   48.6820   19.5080 F   0  0  0  0  0  0  0  0  0  0  0  0
   49.0400   48.0860   17.5960 F   0  0  0  0  0  0  0  0  0  0  0  0
  1  2  1  0  0  0  0
  1  9  1  0  0  0  0
  2  3  1  0  0  0  0
  4  2  1  0  0  0  0
  4  5  1  0  0  0  0
  5  6  1  0  0  0  0
  7  4  2  0  0  0  0
  8  1  2  0  0  0  0
  9 10  1  0  0  0  0
 10 11  1  0  0  0  0
 13 12  1  0  0  0  0
 14 13  2  0  0  0  0
 15 14  1  0  0  0  0
 16 17  2  0  0  0  0
 16 14  1  0  0  0  0
 17 18  1  0  0  0  0
 18 10  1  0  0  0  0
 18 12  2  0  0  0  0
 19  5  1  0  0  0  0
 20 19  1  0  0  0  0
 20 22  1  0  0  0  0
 21 20  1  0  0  0  0
 23 20  1  0  0  0  0
M  END
>  <MODEL>
1

>  <REMARK>
  Name = ZINC22690524
                            x       y       z     vdW  Elec       q    Type
                         _______ _______ _______ _____ _____    ______ ____

>  <TORSDO>
F 5

>  <minimizedAffinity>
-7.6106308577036801

$$$$
ZINC22690524
 OpenBabel10211215233D

 23 23  0  0  0  0  0  0  0  0999 V2000
   51.3530   50.9560   20.5510 C   0  0  0  0  0  0  0  0  0  0  0  0
   50.6250   52.0710   20.3430 N   0  0  0  0  0  0  0  0  0  0  0  0
   49.7390   52.0350   19.6910 H   0  0  0  0  0  0  0  0  0  0  0  0
   50.9820   53.2300   20.9310 C   0  0  0  0  0  0  0  0  0  0  0  0
   50.2540   54.3440   20.7210 N   0  0  0  0  0  0  0  0  0  0  0  0
   49.3690   54.3080   20.0700 H   0  0  0  0  0  0  0  0  0  0  0  0
   51.9600   53.2690   21.6510 O   0  0  0  0  0  0  0  0  0  0  0  0
   52.3290   50.9960   21.2700 O   0  0  0  0  0  0  0  0  0  0  0  0
   50.9530   49.6610   19.8930 C   0  0  0  0  0  0  0  0  0  0  0  0
   50.4730   49.9320   18.5350 N   0  0  0  0  0  0  0  0  0  0  0  0
   51.1850   50.2230   17.7480 H   0  0  0  0  0  0  0  0  0  0  0  0
   48.3610   48.7930   18.7980 C   0  0  0  0  0  0  0  0  0  0  0  0
   47.0150   48.6870   18.5080 C   0  0  0  0  0  0  0  0  0  0  0  0
   46.4150   49.5970   17.6540 C   0  0  0  0  0  0  0  0  0  0  0  0
   45.0990   49.4890   17.3690 F   0  0  0  0  0  0  0  0  0  0  0  0
   47.1630   50.6190   17.0930 C   0  0  0  0  0  0  0  0  0  0  0  0
   48.5080   50.7310   17.3830 C   0  0  0  0  0  0  0  0  0  0  0  0
   49.1120   49.8200   18.2390 C   0  0  0  0  0  0  0  0  0  0  0  0
   50.6420   55.6030   21.3620 C   0  0  0  0  0  0  0  0  0  0  0  0
   49.6210   56.6890   21.0140 C   0  0  0  0  0  0  0  0  0  0  0  0
   49.3860   57.4860   22.1390 F   0  0  0  0  0  0  0  0  0  0  0  0
   48.4240   56.0900   20.6080 F   0  0  0  0  0  0  0  0  0  0  0  0
   50.1200   57.4830   19.9760 F   0  0  0  0  0  0  0  0  0  0  0  0
  1  8  2  0  0  0  0
  2  1  1  0  0  0  0
  2  4  1  0  0  0  0
  3  2  1  0  0  0  0
  4  7  2  0  0  0  0
  5  4  1  0  0  0  0
  5 19  1  0  0  0  0
  6  5  1  0  0  0  0
  9  1  1  0  0  0  0
 10  9  1  0  0  0  0
 11 10  1  0  0  0  0
 13 12  1  0  0  0  0
 14 13  2  0  0  0  0
 15 14  1  0  0  0  0
 16 17  2  0  0  0  0
 16 14  1  0  0  0  0
 17 18  1  0  0  0  0
 18 10  1  0  0  0  0
 18 12  2  0  0  0  0
 20 19  1  0  0  0  0
 20 21  1  0  0  0  0
 22 20  1  0  0  0  0
 23 20  1  0  0  0  0
M  END
>  <MODEL>
2

>  <REMARK>
  Name = ZINC22690524
                            x       y       z     vdW  Elec       q    Type
                         _______ _______ _______ _____ _____    ______ ____

>  <TORSDO>
F 5

>  <minimizedAffinity>
-7.5902245318451591

$$$$
ZINC22690524
 OpenBabel10211215233D

 23 23  0  0  0  0  0  0  0  0999 V2000
   51.8590   53.3440   18.7480 C   0  0  0  0  0  0  0  0  0  0  0  0
   50.6600   52.7290   18.6920 N   0  0  0  0  0  0  0  0  0  0  0  0
   49.7810   53.1950   19.1630 H   0  0  0  0  0  0  0  0  0  0  0  0
   50.5380   51.5450   18.0600 C   0  0  0  0  0  0  0  0  0  0  0  0
   49.3400   50.9310   18.0050 N   0  0  0  0  0  0  0  0  0  0  0  0
   48.4620   51.3970   18.4760 H   0  0  0  0  0  0  0  0  0  0  0  0
   51.5080   51.0320   17.5390 O   0  0  0  0  0  0  0  0  0  0  0  0
   52.8270   52.8310   18.2280 O   0  0  0  0  0  0  0  0  0  0  0  0
   51.9950   54.6670   19.4550 C   0  0  0  0  0  0  0  0  0  0  0  0
   51.1010   54.6940   20.6160 N   0  0  0  0  0  0  0  0  0  0  0  0
   51.2180   53.9480   21.4170 H   0  0  0  0  0  0  0  0  0  0  0  0
   48.9410   55.5450   19.9550 C   0  0  0  0  0  0  0  0  0  0  0  0
   47.9530   56.5050   20.0500 C   0  0  0  0  0  0  0  0  0  0  0  0
   48.1230   57.5940   20.8880 C   0  0  0  0  0  0  0  0  0  0  0  0
   47.1570   58.5350   20.9770 F   0  0  0  0  0  0  0  0  0  0  0  0
   49.2820   57.7210   21.6360 C   0  0  0  0  0  0  0  0  0  0  0  0
   50.2700   56.7600   21.5470 C   0  0  0  0  0  0  0  0  0  0  0  0
   50.1020   55.6670   20.7080 C   0  0  0  0  0  0  0  0  0  0  0  0
   49.2070   49.6450   17.3180 C   0  0  0  0  0  0  0  0  0  0  0  0
   49.0050   48.5330   18.3500 C   0  0  0  0  0  0  0  0  0  0  0  0
   47.8310   48.7740   19.0720 F   0  0  0  0  0  0  0  0  0  0  0  0
   50.0950   48.5060   19.2260 F   0  0  0  0  0  0  0  0  0  0  0  0
   48.9030   47.3010   17.6940 F   0  0  0  0  0  0  0  0  0  0  0  0
  1  9  1  0  0  0  0
  2  1  1  0  0  0  0
  2  3  1  0  0  0  0
  4  2  1  0  0  0  0
  5  4  1  0  0  0  0
  5  6  1  0  0  0  0
  7  4  2  0  0  0  0
  8  1  2  0  0  0  0
  9 10  1  0  0  0  0
 10 18  1  0  0  0  0
 10 11  1  0  0  0  0
 12 13  2  0  0  0  0
 12 18  1  0  0  0  0
 13 14  1  0  0  0  0
 14 15  1  0  0  0  0
 14 16  2  0  0  0  0
 17 16  1  0  0  0  0
 18 17  2  0  0  0  0
 19  5  1  0  0  0  0
 19 20  1  0  0  0  0
 20 21  1  0  0  0  0
 20 22  1  0  0  0  0
 23 20  1  0  0  0  0
M  END
>  <MODEL>
3

>  <REMARK>
  Name = ZINC22690524
                            x       y       z     vdW  Elec       q    Type
                         _______ _______ _______ _____ _____    ______ ____

>  <TORSDO>
F 5

>  <minimizedAffinity>
-7.547507296457848

$$$$
ZINC22690524
 OpenBabel10211215233D

 23 23  0  0  0  0  0  0  0  0999 V2000
   52.2870   52.4500   18.8620 C   0  0  0  0  0  0  0  0  0  0  0  0
   51.6040   52.9150   19.9270 N   0  0  0  0  0  0  0  0  0  0  0  0
   50.9480   52.2390   20.4970 H   0  0  0  0  0  0  0  0  0  0  0  0
   51.7210   54.2060   20.2930 C   0  0  0  0  0  0  0  0  0  0  0  0
   51.0380   54.6710   21.3570 N   0  0  0  0  0  0  0  0  0  0  0  0
   50.3840   53.9950   21.9270 H   0  0  0  0  0  0  0  0  0  0  0  0
   52.4460   54.9520   19.6630 O   0  0  0  0  0  0  0  0  0  0  0  0
   53.0090   53.1950   18.2340 O   0  0  0  0  0  0  0  0  0  0  0  0
   52.1540   51.0060   18.4530 C   0  0  0  0  0  0  0  0  0  0  0  0
   51.3420   50.9170   17.2360 N   0  0  0  0  0  0  0  0  0  0  0  0
   51.8080   51.0640   16.2510 H   0  0  0  0  0  0  0  0  0  0  0  0
   49.0780   51.2870   16.4830 C   0  0  0  0  0  0  0  0  0  0  0  0
   47.7270   51.0120   16.5710 C   0  0  0  0  0  0  0  0  0  0  0  0
   47.2640   50.1030   17.5060 C   0  0  0  0  0  0  0  0  0  0  0  0
   45.9430   49.8380   17.5940 F   0  0  0  0  0  0  0  0  0  0  0  0
   48.1550   49.4630   18.3530 C   0  0  0  0  0  0  0  0  0  0  0  0
   49.5070   49.7310   18.2640 C   0  0  0  0  0  0  0  0  0  0  0  0
   49.9740   50.6430   17.3270 C   0  0  0  0  0  0  0  0  0  0  0  0
   51.1680   56.0740   21.7550 C   0  0  0  0  0  0  0  0  0  0  0  0
   49.9550   56.8610   21.2520 C   0  0  0  0  0  0  0  0  0  0  0  0
   50.3390   57.6750   20.1800 F   0  0  0  0  0  0  0  0  0  0  0  0
   49.4540   57.6570   22.2860 F   0  0  0  0  0  0  0  0  0  0  0  0
   48.9650   55.9700   20.8270 F   0  0  0  0  0  0  0  0  0  0  0  0
  1  2  1  0  0  0  0
  2  4  1  0  0  0  0
  2  3  1  0  0  0  0
  4  5  1  0  0  0  0
  5 19  1  0  0  0  0
  5  6  1  0  0  0  0
  7  4  2  0  0  0  0
  8  1  2  0  0  0  0
  9  1  1  0  0  0  0
 10 18  1  0  0  0  0
 10  9  1  0  0  0  0
 11 10  1  0  0  0  0
 12 13  2  0  0  0  0
 12 18  1  0  0  0  0
 13 14  1  0  0  0  0
 14 15  1  0  0  0  0
 14 16  2  0  0  0  0
 17 16  1  0  0  0  0
 18 17  2  0  0  0  0
 20 19  1  0  0  0  0
 20 22  1  0  0  0  0
 21 20  1  0  0  0  0
 23 20  1  0  0  0  0
M  END
>  <MODEL>
4

>  <REMARK>
  Name = ZINC22690524
                            x       y       z     vdW  Elec       q    Type
                         _______ _______ _______ _____ _____    ______ ____

>  <TORSDO>
F 5

>  <minimizedAffinity>
-7.5391903096559929

$$$$
ZINC22690524
 OpenBabel10211215233D

 23 23  0  0  0  0  0  0  0  0999 V2000
   51.0580   51.2940   18.0590 C   0  0  0  0  0  0  0  0  0  0  0  0
   50.4890   51.9070   19.1170 N   0  0  0  0  0  0  0  0  0  0  0  0
   49.3920   51.9500   19.2020 H   0  0  0  0  0  0  0  0  0  0  0  0
   51.2610   52.4660   20.0680 C   0  0  0  0  0  0  0  0  0  0  0  0
   50.6920   53.0790   21.1240 N   0  0  0  0  0  0  0  0  0  0  0  0
   49.5960   53.1220   21.2100 H   0  0  0  0  0  0  0  0  0  0  0  0
   52.4720   52.4170   19.9740 O   0  0  0  0  0  0  0  0  0  0  0  0
   52.2660   51.2460   17.9660 O   0  0  0  0  0  0  0  0  0  0  0  0
   50.1930   50.6700   16.9950 C   0  0  0  0  0  0  0  0  0  0  0  0
   49.6900   49.3780   17.4710 N   0  0  0  0  0  0  0  0  0  0  0  0
   50.3960   48.5790   17.7440 H   0  0  0  0  0  0  0  0  0  0  0  0
   47.4530   49.6520   16.6070 C   0  0  0  0  0  0  0  0  0  0  0  0
   46.0930   49.4330   16.7140 C   0  0  0  0  0  0  0  0  0  0  0  0
   45.5870   48.7330   17.7960 C   0  0  0  0  0  0  0  0  0  0  0  0
   44.2570   48.5230   17.9010 F   0  0  0  0  0  0  0  0  0  0  0  0
   46.4430   48.2470   18.7700 C   0  0  0  0  0  0  0  0  0  0  0  0
   47.8030   48.4600   18.6650 C   0  0  0  0  0  0  0  0  0  0  0  0
   48.3140   49.1610   17.5800 C   0  0  0  0  0  0  0  0  0  0  0  0
   51.5320   53.6860   22.1600 C   0  0  0  0  0  0  0  0  0  0  0  0
   51.5060   55.2090   22.0090 C   0  0  0  0  0  0  0  0  0  0  0  0
   52.5290   55.6100   21.1430 F   0  0  0  0  0  0  0  0  0  0  0  0
   51.6940   55.8040   23.2610 F   0  0  0  0  0  0  0  0  0  0  0  0
   50.2710   55.6040   21.4850 F   0  0  0  0  0  0  0  0  0  0  0  0
  1  2  1  0  0  0  0
  2  3  1  0  0  0  0
  2  4  1  0  0  0  0
  4  5  1  0  0  0  0
  5  6  1  0  0  0  0
  5 19  1  0  0  0  0
  7  4  2  0  0  0  0
  8  1  2  0  0  0  0
  9 10  1  0  0  0  0
  9  1  1  0  0  0  0
 10 18  1  0  0  0  0
 10 11  1  0  0  0  0
 12 13  2  0  0  0  0
 12 18  1  0  0  0  0
 13 14  1  0  0  0  0
 14 15  1  0  0  0  0
 14 16  2  0  0  0  0
 17 16  1  0  0  0  0
 18 17  2  0  0  0  0
 20 19  1  0  0  0  0
 20 22  1  0  0  0  0
 21 20  1  0  0  0  0
 23 20  1  0  0  0  0
M  END
>  <MODEL>
5

>  <REMARK>
  Name = ZINC22690524
                            x       y       z     vdW  Elec       q    Type
                         _______ _______ _______ _____ _____    ______ ____

>  <TORSDO>
F 5

>  <minimizedAffinity>
-7.4195646989491442

$$$$
ZINC22690524
 OpenBabel10211215233D

 23 23  0  0  0  0  0  0  0  0999 V2000
   51.1160   51.8750   20.2830 C   0  0  0  0  0  0  0  0  0  0  0  0
   50.4850   51.4510   19.1700 N   0  0  0  0  0  0  0  0  0  0  0  0
   50.3890   52.1220   18.3030 H   0  0  0  0  0  0  0  0  0  0  0  0
   49.9700   50.2070   19.1190 C   0  0  0  0  0  0  0  0  0  0  0  0
   49.3380   49.7840   18.0070 N   0  0  0  0  0  0  0  0  0  0  0  0
   49.2430   50.4540   17.1400 H   0  0  0  0  0  0  0  0  0  0  0  0
   50.0760   49.4660   20.0770 O   0  0  0  0  0  0  0  0  0  0  0  0
   51.2220   51.1360   21.2380 O   0  0  0  0  0  0  0  0  0  0  0  0
   51.6910   53.2670   20.3390 C   0  0  0  0  0  0  0  0  0  0  0  0
   50.8350   54.1790   19.5750 N   0  0  0  0  0  0  0  0  0  0  0  0
   50.6660   54.0060   18.5020 H   0  0  0  0  0  0  0  0  0  0  0  0
   50.9160   55.9600   21.2030 C   0  0  0  0  0  0  0  0  0  0  0  0
   50.3200   57.0400   21.8260 C   0  0  0  0  0  0  0  0  0  0  0  0
   49.0390   57.4260   21.4700 C   0  0  0  0  0  0  0  0  0  0  0  0
   48.4570   58.4790   22.0830 F   0  0  0  0  0  0  0  0  0  0  0  0
   48.3540   56.7350   20.4840 C   0  0  0  0  0  0  0  0  0  0  0  0
   48.9480   55.6580   19.8550 C   0  0  0  0  0  0  0  0  0  0  0  0
   50.2320   55.2680   20.2110 C   0  0  0  0  0  0  0  0  0  0  0  0
   48.7800   48.4300   17.9520 C   0  0  0  0  0  0  0  0  0  0  0  0
   47.2690   48.4920   18.1850 C   0  0  0  0  0  0  0  0  0  0  0  0
   46.9970   48.2840   19.5420 F   0  0  0  0  0  0  0  0  0  0  0  0
   46.6390   47.5020   17.4260 F   0  0  0  0  0  0  0  0  0  0  0  0
   46.7890   49.7490   17.8020 F   0  0  0  0  0  0  0  0  0  0  0  0
  1  9  1  0  0  0  0
  1  8  2  0  0  0  0
  2  1  1  0  0  0  0
  3  2  1  0  0  0  0
  4  2  1  0  0  0  0
  4  7  2  0  0  0  0
  5  4  1  0  0  0  0
  6  5  1  0  0  0  0
 10 18  1  0  0  0  0
 10  9  1  0  0  0  0
 11 10  1  0  0  0  0
 12 13  2  0  0  0  0
 14 13  1  0  0  0  0
 14 15  1  0  0  0  0
 16 14  2  0  0  0  0
 17 18  2  0  0  0  0
 17 16  1  0  0  0  0
 18 12  1  0  0  0  0
 19  5  1  0  0  0  0
 19 20  1  0  0  0  0
 20 21  1  0  0  0  0
 22 20  1  0  0  0  0
 23 20  1  0  0  0  0
M  END
>  <MODEL>
6

>  <REMARK>
  Name = ZINC22690524
                            x       y       z     vdW  Elec       q    Type
                         _______ _______ _______ _____ _____    ______ ____

>  <TORSDO>
F 5

>  <minimizedAffinity>
-7.2955306950553487

$$$$
ZINC22690524
 OpenBabel10211215233D

 23 23  0  0  0  0  0  0  0  0999 V2000
   49.9650   52.6220   18.3400 C   0  0  0  0  0  0  0  0  0  0  0  0
   49.5900   52.1960   17.1170 N   0  0  0  0  0  0  0  0  0  0  0  0
   49.4030   52.9260   16.3150 H   0  0  0  0  0  0  0  0  0  0  0  0
   49.4440   50.8790   16.8770 C   0  0  0  0  0  0  0  0  0  0  0  0
   49.0680   50.4540   15.6550 N   0  0  0  0  0  0  0  0  0  0  0  0
   48.8820   51.1830   14.8530 H   0  0  0  0  0  0  0  0  0  0  0  0
   49.6510   50.0730   17.7630 O   0  0  0  0  0  0  0  0  0  0  0  0
   50.1720   51.8180   19.2240 O   0  0  0  0  0  0  0  0  0  0  0  0
   50.1280   54.0960   18.6080 C   0  0  0  0  0  0  0  0  0  0  0  0
   48.8760   54.6340   19.1490 N   0  0  0  0  0  0  0  0  0  0  0  0
   47.9160   54.1670   18.8840 H   0  0  0  0  0  0  0  0  0  0  0  0
   49.9770   55.9300   20.8630 C   0  0  0  0  0  0  0  0  0  0  0  0
   50.0030   57.0270   21.7020 C   0  0  0  0  0  0  0  0  0  0  0  0
   48.9550   57.9320   21.6930 C   0  0  0  0  0  0  0  0  0  0  0  0
   48.9810   59.0020   22.5180 F   0  0  0  0  0  0  0  0  0  0  0  0
   47.8810   57.7430   20.8400 C   0  0  0  0  0  0  0  0  0  0  0  0
   47.8530   56.6500   19.9950 C   0  0  0  0  0  0  0  0  0  0  0  0
   48.9030   55.7410   20.0020 C   0  0  0  0  0  0  0  0  0  0  0  0
   48.9100   49.0210   15.3940 C   0  0  0  0  0  0  0  0  0  0  0  0
   47.4340   48.7090   15.1370 C   0  0  0  0  0  0  0  0  0  0  0  0
   47.1390   48.9260   13.7870 F   0  0  0  0  0  0  0  0  0  0  0  0
   46.6370   49.5410   15.9290 F   0  0  0  0  0  0  0  0  0  0  0  0
   47.1780   47.3720   15.4610 F   0  0  0  0  0  0  0  0  0  0  0  0
  1  9  1  0  0  0  0
  1  8  2  0  0  0  0
  2  1  1  0  0  0  0
  3  2  1  0  0  0  0
  4  2  1  0  0  0  0
  4  7  2  0  0  0  0
  5  4  1  0  0  0  0
  6  5  1  0  0  0  0
  9 10  1  0  0  0  0
 10 18  1  0  0  0  0
 11 10  1  0  0  0  0
 12 13  2  0  0  0  0
 14 13  1  0  0  0  0
 14 15  1  0  0  0  0
 16 14  2  0  0  0  0
 17 18  2  0  0  0  0
 17 16  1  0  0  0  0
 18 12  1  0  0  0  0
 19  5  1  0  0  0  0
 20 19  1  0  0  0  0
 20 23  1  0  0  0  0
 20 22  1  0  0  0  0
 21 20  1  0  0  0  0
M  END
>  <MODEL>
7

>  <REMARK>
  Name = ZINC22690524
                            x       y       z     vdW  Elec       q    Type
                         _______ _______ _______ _____ _____    ______ ____

>  <TORSDO>
F 5

>  <minimizedAffinity>
-7.2842611324974742

$$$$
ZINC22690524
 OpenBabel10211215233D

 23 23  0  0  0  0  0  0  0  0999 V2000
   49.2770   53.2950   18.1010 C   0  0  0  0  0  0  0  0  0  0  0  0
   49.5460   54.1770   19.0840 N   0  0  0  0  0  0  0  0  0  0  0  0
   50.0410   53.8370   20.0070 H   0  0  0  0  0  0  0  0  0  0  0  0
   49.2080   55.4730   18.9390 C   0  0  0  0  0  0  0  0  0  0  0  0
   49.4760   56.3540   19.9220 N   0  0  0  0  0  0  0  0  0  0  0  0
   49.9720   56.0150   20.8440 H   0  0  0  0  0  0  0  0  0  0  0  0
   48.6610   55.8480   17.9200 O   0  0  0  0  0  0  0  0  0  0  0  0
   48.7310   53.6690   17.0850 O   0  0  0  0  0  0  0  0  0  0  0  0
   49.6540   51.8450   18.2650 C   0  0  0  0  0  0  0  0  0  0  0  0
   48.9720   51.0450   17.2440 N   0  0  0  0  0  0  0  0  0  0  0  0
   49.2720   51.1270   16.1890 H   0  0  0  0  0  0  0  0  0  0  0  0
   48.1760   49.1670   18.5360 C   0  0  0  0  0  0  0  0  0  0  0  0
   47.1540   48.3130   18.9010 C   0  0  0  0  0  0  0  0  0  0  0  0
   45.8970   48.4560   18.3390 C   0  0  0  0  0  0  0  0  0  0  0  0
   44.8990   47.6170   18.6940 F   0  0  0  0  0  0  0  0  0  0  0  0
   45.6600   49.4580   17.4130 C   0  0  0  0  0  0  0  0  0  0  0  0
   46.6780   50.3170   17.0490 C   0  0  0  0  0  0  0  0  0  0  0  0
   47.9400   50.1770   17.6110 C   0  0  0  0  0  0  0  0  0  0  0  0
   49.1100   57.7630   19.7630 C   0  0  0  0  0  0  0  0  0  0  0  0
   47.8860   58.0730   20.6290 C   0  0  0  0  0  0  0  0  0  0  0  0
   48.2900   58.2690   21.9540 F   0  0  0  0  0  0  0  0  0  0  0  0
   46.9880   57.0030   20.5670 F   0  0  0  0  0  0  0  0  0  0  0  0
   47.2630   59.2330   20.1560 F   0  0  0  0  0  0  0  0  0  0  0  0
  1  9  1  0  0  0  0
  1  2  1  0  0  0  0
  2  3  1  0  0  0  0
  4  2  1  0  0  0  0
  4  5  1  0  0  0  0
  5  6  1  0  0  0  0
  7  4  2  0  0  0  0
  8  1  2  0  0  0  0
 10 18  1  0  0  0  0
 10  9  1  0  0  0  0
 11 10  1  0  0  0  0
 12 13  1  0  0  0  0
 14 15  1  0  0  0  0
 14 13  2  0  0  0  0
 16 14  1  0  0  0  0
 17 16  2  0  0  0  0
 17 18  1  0  0  0  0
 18 12  2  0  0  0  0
 19  5  1  0  0  0  0
 19 20  1  0  0  0  0
 20 21  1  0  0  0  0
 22 20  1  0  0  0  0
 23 20  1  0  0  0  0
M  END
>  <MODEL>
8

>  <REMARK>
  Name = ZINC22690524
                            x       y       z     vdW  Elec       q    Type
                         _______ _______ _______ _____ _____    ______ ____

>  <TORSDO>
F 5

>  <minimizedAffinity>
-7.2106203611903235

$$$$
ZINC22690524
 OpenBabel10211215233D

 23 23  0  0  0  0  0  0  0  0999 V2000
   48.2710   53.9000   16.9620 C   0  0  0  0  0  0  0  0  0  0  0  0
   48.6380   54.3390   18.1830 N   0  0  0  0  0  0  0  0  0  0  0  0
   48.8470   53.6160   18.9860 H   0  0  0  0  0  0  0  0  0  0  0  0
   48.7480   55.6600   18.4200 C   0  0  0  0  0  0  0  0  0  0  0  0
   49.1140   56.0980   19.6400 N   0  0  0  0  0  0  0  0  0  0  0  0
   49.3240   55.3770   20.4430 H   0  0  0  0  0  0  0  0  0  0  0  0
   48.5170   56.4580   17.5310 O   0  0  0  0  0  0  0  0  0  0  0  0
   48.0410   54.6950   16.0770 O   0  0  0  0  0  0  0  0  0  0  0  0
   48.1470   52.4210   16.6990 C   0  0  0  0  0  0  0  0  0  0  0  0
   49.4630   51.7900   16.8340 N   0  0  0  0  0  0  0  0  0  0  0  0
   50.2480   51.9910   16.0900 H   0  0  0  0  0  0  0  0  0  0  0  0
   48.9490   49.7940   18.0900 C   0  0  0  0  0  0  0  0  0  0  0  0
   49.2090   48.9470   19.1500 C   0  0  0  0  0  0  0  0  0  0  0  0
   50.2310   49.2390   20.0370 C   0  0  0  0  0  0  0  0  0  0  0  0
   50.4810   48.4110   21.0750 F   0  0  0  0  0  0  0  0  0  0  0  0
   50.9990   50.3780   19.8600 C   0  0  0  0  0  0  0  0  0  0  0  0
   50.7460   51.2250   18.7990 C   0  0  0  0  0  0  0  0  0  0  0  0
   49.7210   50.9340   17.9080 C   0  0  0  0  0  0  0  0  0  0  0  0
   49.2350   57.5360   19.8960 C   0  0  0  0  0  0  0  0  0  0  0  0
   48.0090   58.0200   20.6740 C   0  0  0  0  0  0  0  0  0  0  0  0
   47.5150   59.1890   20.0860 F   0  0  0  0  0  0  0  0  0  0  0  0
   48.3700   58.2800   21.9990 F   0  0  0  0  0  0  0  0  0  0  0  0
   47.0190   57.0310   20.6460 F   0  0  0  0  0  0  0  0  0  0  0  0
  1  2  1  0  0  0  0
  2  4  1  0  0  0  0
  2  3  1  0  0  0  0
  4  5  1  0  0  0  0
  5 19  1  0  0  0  0
  5  6  1  0  0  0  0
  7  4  2  0  0  0  0
  8  1  2  0  0  0  0
  9 10  1  0  0  0  0
  9  1  1  0  0  0  0
 10 18  1  0  0  0  0
 11 10  1  0  0  0  0
 12 13  1  0  0  0  0
 13 14  2  0  0  0  0
 14 15  1  0  0  0  0
 16 14  1  0  0  0  0
 17 16  2  0  0  0  0
 18 12  2  0  0  0  0
 18 17  1  0  0  0  0
 19 20  1  0  0  0  0
 20 22  1  0  0  0  0
 21 20  1  0  0  0  0
 23 20  1  0  0  0  0
M  END
>  <MODEL>
9

>  <REMARK>
  Name = ZINC22690524
                            x       y       z     vdW  Elec       q    Type
                         _______ _______ _______ _____ _____    ______ ____

>  <TORSDO>
F 5

>  <minimizedAffinity>
-7.1640128579008202

$$$$
ZINC50988320
 OpenBabel10211215243D

 24 25  0  0  1  0  0  0  0  0999 V2000
   46.3760   48.0900   17.9500 C   0  0  2  0  0  0  0  0  0  0  0  0
   47.0050   47.8140   16.7690 N   0  0  0  0  0  0  0  0  0  0  0  0
   48.3500   48.0960   16.8710 C   0  0  2  0  0  0  0  0  0  0  0  0
   49.2580   47.9650   15.9610 N   0  0  0  0  0  0  0  0  0  0  0  0
   49.0170   47.6360   15.0810 H   0  0  0  0  0  0  0  0  0  0  0  0
   50.1790   48.1950   16.1570 H   0  0  0  0  0  0  0  0  0  0  0  0
   48.5280   48.5880   18.2950 C   0  0  2  0  0  0  0  0  0  0  0  0
   47.1710   48.5280   18.8600 N   0  0  0  0  0  0  0  0  0  0  0  0
   46.9200   48.7760   19.7640 H   0  0  0  0  0  0  0  0  0  0  0  0
   49.0420   50.0050   18.3040 C   0  0  0  0  0  0  0  0  0  0  0  0
   48.3590   50.9910   17.6190 C   0  0  0  0  0  0  0  0  0  0  0  0
   48.8280   52.2920   17.6250 C   0  0  0  0  0  0  0  0  0  0  0  0
   49.9860   52.6090   18.3200 C   0  0  0  0  0  0  0  0  0  0  0  0
   50.6730   51.6210   19.0080 C   0  0  0  0  0  0  0  0  0  0  0  0
   50.1980   50.3190   19.0050 C   0  0  0  0  0  0  0  0  0  0  0  0
   50.4470   53.8880   18.3260 O   0  0  0  0  0  0  0  0  0  0  0  0
   51.6510   54.1410   19.0520 C   0  0  0  0  0  0  0  0  0  0  0  0
   50.8660   49.3490   19.6840 O   0  0  0  0  0  0  0  0  0  0  0  0
   52.2670   49.5430   19.8820 C   0  0  0  0  0  0  0  0  0  0  0  0
   46.3440   47.2990   15.5670 C   0  0  0  0  0  0  0  0  0  0  0  0
   45.2350   48.2640   15.1420 C   0  0  0  0  0  0  0  0  0  0  0  0
   45.7390   45.9260   15.8650 C   0  0  0  0  0  0  0  0  0  0  0  0
   44.6710   47.0950   19.4500 C   0  0  0  0  0  0  0  0  0  0  0  0
   44.8970   47.8940   18.1660 C   0  0  0  0  0  0  0  0  0  0  0  0
  1 24  1  1  0  0  0
  1  8  1  0  0  0  0
  2  3  1  0  0  0  0
  2  1  1  0  0  0  0
  3  4  1  1  0  0  0
  3  7  1  0  0  0  0
  4  6  1  0  0  0  0
  5  4  1  0  0  0  0
  7 10  1  6  0  0  0
  7  8  1  0  0  0  0
  8  9  1  0  0  0  0
 10 15  2  0  0  0  0
 11 12  2  0  0  0  0
 11 10  1  0  0  0  0
 12 13  1  0  0  0  0
 13 16  1  0  0  0  0
 13 14  2  0  0  0  0
 15 14  1  0  0  0  0
 15 18  1  0  0  0  0
 16 17  1  0  0  0  0
 18 19  1  0  0  0  0
 20 22  1  0  0  0  0
 20  2  1  0  0  0  0
 21 20  1  0  0  0  0
 24 23  1  0  0  0  0
M  END
>  <MODEL>
1

>  <REMARK>
  Name = ZINC50988320
                            x       y       z     vdW  Elec       q    Type
                         _______ _______ _______ _____ _____    ______ ____

>  <TORSDO>
F 5

>  <minimizedAffinity>
-7.4304704190798789

$$$$
ZINC50988320
 OpenBabel10211215243D

 24 25  0  0  1  0  0  0  0  0999 V2000
   50.3400   52.4760   18.3650 C   0  0  2  0  0  0  0  0  0  0  0  0
   50.9110   51.5740   19.2170 N   0  0  0  0  0  0  0  0  0  0  0  0
   50.6900   50.2910   18.7680 C   0  0  2  0  0  0  0  0  0  0  0  0
   51.0740   49.1830   19.3120 N   0  0  0  0  0  0  0  0  0  0  0  0
   51.5800   49.2000   20.1390 H   0  0  0  0  0  0  0  0  0  0  0  0
   50.8580   48.3360   18.8940 H   0  0  0  0  0  0  0  0  0  0  0  0
   49.8980   50.4690   17.4860 C   0  0  2  0  0  0  0  0  0  0  0  0
   49.7520   51.9270   17.3620 N   0  0  0  0  0  0  0  0  0  0  0  0
   49.2920   52.3940   16.6460 H   0  0  0  0  0  0  0  0  0  0  0  0
   48.5470   49.8100   17.6030 C   0  0  0  0  0  0  0  0  0  0  0  0
   48.2200   49.1050   18.7450 C   0  0  0  0  0  0  0  0  0  0  0  0
   46.9820   48.5000   18.8560 C   0  0  0  0  0  0  0  0  0  0  0  0
   46.0650   48.6000   17.8190 C   0  0  0  0  0  0  0  0  0  0  0  0
   46.3910   49.3070   16.6720 C   0  0  0  0  0  0  0  0  0  0  0  0
   47.6310   49.9170   16.5660 C   0  0  0  0  0  0  0  0  0  0  0  0
   44.8480   48.0050   17.9280 O   0  0  0  0  0  0  0  0  0  0  0  0
   44.6030   47.2390   19.1090 C   0  0  0  0  0  0  0  0  0  0  0  0
   47.9520   50.6160   15.4450 O   0  0  0  0  0  0  0  0  0  0  0  0
   48.2840   49.8580   14.2810 C   0  0  0  0  0  0  0  0  0  0  0  0
   51.6480   51.9210   20.4360 C   0  0  0  0  0  0  0  0  0  0  0  0
   52.8010   50.9340   20.6330 C   0  0  0  0  0  0  0  0  0  0  0  0
   50.7060   51.8520   21.6390 C   0  0  0  0  0  0  0  0  0  0  0  0
   49.1210   54.4330   19.2780 C   0  0  0  0  0  0  0  0  0  0  0  0
   50.3980   53.9670   18.5760 C   0  0  0  0  0  0  0  0  0  0  0  0
  1 24  1  6  0  0  0
  1  2  1  0  0  0  0
  2 20  1  0  0  0  0
  3  2  1  0  0  0  0
  3  4  1  6  0  0  0
  4  5  1  0  0  0  0
  6  4  1  0  0  0  0
  7 10  1  1  0  0  0
  7  3  1  0  0  0  0
  8  7  1  0  0  0  0
  8  1  1  0  0  0  0
  9  8  1  0  0  0  0
 10 11  2  0  0  0  0
 11 12  1  0  0  0  0
 13 16  1  0  0  0  0
 13 12  2  0  0  0  0
 14 13  1  0  0  0  0
 15 14  2  0  0  0  0
 15 10  1  0  0  0  0
 16 17  1  0  0  0  0
 18 15  1  0  0  0  0
 19 18  1  0  0  0  0
 20 21  1  0  0  0  0
 20 22  1  0  0  0  0
 24 23  1  0  0  0  0
M  END
>  <MODEL>
2

>  <REMARK>
  Name = ZINC50988320
                            x       y       z     vdW  Elec       q    Type
                         _______ _______ _______ _____ _____    ______ ____

>  <TORSDO>
F 5

>  <minimizedAffinity>
-7.1809372507228924

$$$$
ZINC50988320
 OpenBabel10211215243D

 24 25  0  0  1  0  0  0  0  0999 V2000
   49.7650   49.9830   15.4820 C   0  0  2  0  0  0  0  0  0  0  0  0
   48.7670   49.2840   16.1000 N   0  0  0  0  0  0  0  0  0  0  0  0
   48.1790   50.0580   17.0750 C   0  0  2  0  0  0  0  0  0  0  0  0
   47.2090   49.7350   17.8660 N   0  0  0  0  0  0  0  0  0  0  0  0
   46.8130   48.8510   17.8100 H   0  0  0  0  0  0  0  0  0  0  0  0
   46.8770   50.3750   18.5140 H   0  0  0  0  0  0  0  0  0  0  0  0
   48.9220   51.3800   17.0100 C   0  0  2  0  0  0  0  0  0  0  0  0
   49.9100   51.1760   15.9390 N   0  0  0  0  0  0  0  0  0  0  0  0
   50.5580   51.8290   15.6310 H   0  0  0  0  0  0  0  0  0  0  0  0
   49.6130   51.6640   18.3190 C   0  0  0  0  0  0  0  0  0  0  0  0
   50.1840   50.6300   19.0360 C   0  0  0  0  0  0  0  0  0  0  0  0
   50.8180   50.8870   20.2370 C   0  0  0  0  0  0  0  0  0  0  0  0
   50.8820   52.1850   20.7250 C   0  0  0  0  0  0  0  0  0  0  0  0
   50.3090   53.2230   20.0080 C   0  0  0  0  0  0  0  0  0  0  0  0
   49.6780   52.9640   18.8010 C   0  0  0  0  0  0  0  0  0  0  0  0
   51.5050   52.4370   21.9070 O   0  0  0  0  0  0  0  0  0  0  0  0
   51.6230   53.8050   22.3000 C   0  0  0  0  0  0  0  0  0  0  0  0
   49.1210   53.9800   18.0920 O   0  0  0  0  0  0  0  0  0  0  0  0
   49.2070   55.2890   18.6580 C   0  0  0  0  0  0  0  0  0  0  0  0
   48.3830   47.9070   15.7760 C   0  0  0  0  0  0  0  0  0  0  0  0
   46.9100   47.8750   15.3570 C   0  0  0  0  0  0  0  0  0  0  0  0
   48.5830   47.0180   17.0040 C   0  0  0  0  0  0  0  0  0  0  0  0
   52.0620   49.8550   14.5550 C   0  0  0  0  0  0  0  0  0  0  0  0
   50.6080   49.4150   14.3690 C   0  0  0  0  0  0  0  0  0  0  0  0
  1 24  1  6  0  0  0
  1  8  1  0  0  0  0
  1  2  1  0  0  0  0
  2  3  1  0  0  0  0
  3  4  1  6  0  0  0
  4  6  1  0  0  0  0
  5  4  1  0  0  0  0
  7  3  1  0  0  0  0
  7 10  1  1  0  0  0
  8  7  1  0  0  0  0
  9  8  1  0  0  0  0
 10 15  2  0  0  0  0
 10 11  1  0  0  0  0
 11 12  2  0  0  0  0
 12 13  1  0  0  0  0
 13 16  1  0  0  0  0
 14 13  2  0  0  0  0
 15 14  1  0  0  0  0
 16 17  1  0  0  0  0
 18 19  1  0  0  0  0
 18 15  1  0  0  0  0
 20  2  1  0  0  0  0
 20 22  1  0  0  0  0
 21 20  1  0  0  0  0
 24 23  1  0  0  0  0
M  END
>  <MODEL>
3

>  <REMARK>
  Name = ZINC50988320
                            x       y       z     vdW  Elec       q    Type
                         _______ _______ _______ _____ _____    ______ ____

>  <TORSDO>
F 5

>  <minimizedAffinity>
-7.0375527460083829

$$$$
ZINC50988320
 OpenBabel10211215243D

 24 25  0  0  1  0  0  0  0  0999 V2000
   49.1460   56.2470   20.0560 C   0  0  2  0  0  0  0  0  0  0  0  0
   50.4470   56.2920   20.4700 N   0  0  0  0  0  0  0  0  0  0  0  0
   51.2200   55.4520   19.6970 C   0  0  2  0  0  0  0  0  0  0  0  0
   52.4890   55.2310   19.7950 N   0  0  0  0  0  0  0  0  0  0  0  0
   53.0080   55.6810   20.4790 H   0  0  0  0  0  0  0  0  0  0  0  0
   52.9230   54.6150   19.1840 H   0  0  0  0  0  0  0  0  0  0  0  0
   50.2470   54.8500   18.7010 C   0  0  2  0  0  0  0  0  0  0  0  0
   48.9550   55.4570   19.0590 N   0  0  0  0  0  0  0  0  0  0  0  0
   48.1070   55.2910   18.6190 H   0  0  0  0  0  0  0  0  0  0  0  0
   50.1880   53.3520   18.8580 C   0  0  0  0  0  0  0  0  0  0  0  0
   50.8370   52.7430   19.9140 C   0  0  0  0  0  0  0  0  0  0  0  0
   50.7860   51.3700   20.0610 C   0  0  0  0  0  0  0  0  0  0  0  0
   50.0810   50.6000   19.1460 C   0  0  0  0  0  0  0  0  0  0  0  0
   49.4290   51.2080   18.0850 C   0  0  0  0  0  0  0  0  0  0  0  0
   49.4780   52.5870   17.9430 C   0  0  0  0  0  0  0  0  0  0  0  0
   50.0310   49.2490   19.2900 O   0  0  0  0  0  0  0  0  0  0  0  0
   50.5620   48.7060   20.5000 C   0  0  0  0  0  0  0  0  0  0  0  0
   48.8350   53.1870   16.9080 O   0  0  0  0  0  0  0  0  0  0  0  0
   47.5870   52.6230   16.5040 C   0  0  0  0  0  0  0  0  0  0  0  0
   50.9480   57.1100   21.5780 C   0  0  0  0  0  0  0  0  0  0  0  0
   52.0220   58.0690   21.0590 C   0  0  0  0  0  0  0  0  0  0  0  0
   51.5500   56.2020   22.6510 C   0  0  0  0  0  0  0  0  0  0  0  0
   47.8560   58.3620   19.9360 C   0  0  0  0  0  0  0  0  0  0  0  0
   48.0450   57.0490   20.6990 C   0  0  0  0  0  0  0  0  0  0  0  0
  1  2  1  0  0  0  0
  1 24  1  6  0  0  0
  2 20  1  0  0  0  0
  3  4  1  6  0  0  0
  3  2  1  0  0  0  0
  4  5  1  0  0  0  0
  6  4  1  0  0  0  0
  7 10  1  1  0  0  0
  7  8  1  0  0  0  0
  7  3  1  0  0  0  0
  8  1  1  0  0  0  0
  9  8  1  0  0  0  0
 10 11  2  0  0  0  0
 11 12  1  0  0  0  0
 13 16  1  0  0  0  0
 13 12  2  0  0  0  0
 14 13  1  0  0  0  0
 15 14  2  0  0  0  0
 15 10  1  0  0  0  0
 16 17  1  0  0  0  0
 18 15  1  0  0  0  0
 19 18  1  0  0  0  0
 20 22  1  0  0  0  0
 21 20  1  0  0  0  0
 23 24  1  0  0  0  0
M  END
>  <MODEL>
4

>  <REMARK>
  Name = ZINC50988320
                            x       y       z     vdW  Elec       q    Type
                         _______ _______ _______ _____ _____    ______ ____

>  <TORSDO>
F 5

>  <minimizedAffinity>
-6.9802011385766374

$$$$
ZINC50988320
 OpenBabel10211215243D

 24 25  0  0  1  0  0  0  0  0999 V2000
   49.6350   50.1510   18.8030 C   0  0  2  0  0  0  0  0  0  0  0  0
   48.8260   50.4590   17.7460 N   0  0  0  0  0  0  0  0  0  0  0  0
   49.1090   51.7260   17.2860 C   0  0  2  0  0  0  0  0  0  0  0  0
   48.5480   52.3570   16.3070 N   0  0  0  0  0  0  0  0  0  0  0  0
   47.8340   51.9350   15.8050 H   0  0  0  0  0  0  0  0  0  0  0  0
   48.8410   53.2520   16.0750 H   0  0  0  0  0  0  0  0  0  0  0  0
   50.2320   52.2130   18.1820 C   0  0  2  0  0  0  0  0  0  0  0  0
   50.4570   51.0900   19.1060 N   0  0  0  0  0  0  0  0  0  0  0  0
   51.1150   51.0640   19.8190 H   0  0  0  0  0  0  0  0  0  0  0  0
   49.8080   53.4440   18.9410 C   0  0  0  0  0  0  0  0  0  0  0  0
   48.6700   54.1300   18.5610 C   0  0  0  0  0  0  0  0  0  0  0  0
   48.2780   55.2600   19.2540 C   0  0  0  0  0  0  0  0  0  0  0  0
   49.0270   55.7070   20.3340 C   0  0  0  0  0  0  0  0  0  0  0  0
   50.1690   55.0210   20.7160 C   0  0  0  0  0  0  0  0  0  0  0  0
   50.5570   53.8850   20.0220 C   0  0  0  0  0  0  0  0  0  0  0  0
   48.6420   56.8190   21.0150 O   0  0  0  0  0  0  0  0  0  0  0  0
   49.6580   57.5340   21.7190 C   0  0  0  0  0  0  0  0  0  0  0  0
   51.6730   53.2060   20.3980 O   0  0  0  0  0  0  0  0  0  0  0  0
   51.8230   52.9260   21.7910 C   0  0  0  0  0  0  0  0  0  0  0  0
   47.8010   49.5720   17.1870 C   0  0  0  0  0  0  0  0  0  0  0  0
   48.1260   49.2800   15.7200 C   0  0  0  0  0  0  0  0  0  0  0  0
   46.4330   50.2500   17.2810 C   0  0  0  0  0  0  0  0  0  0  0  0
   50.5100   48.8820   20.7460 C   0  0  0  0  0  0  0  0  0  0  0  0
   49.5730   48.8360   19.5370 C   0  0  0  0  0  0  0  0  0  0  0  0
  1  8  1  0  0  0  0
  1 24  1  6  0  0  0
  2  1  1  0  0  0  0
  3  4  1  6  0  0  0
  3  2  1  0  0  0  0
  3  7  1  0  0  0  0
  5  4  1  0  0  0  0
  6  4  1  0  0  0  0
  7 10  1  1  0  0  0
  7  8  1  0  0  0  0
  8  9  1  0  0  0  0
 10 15  1  0  0  0  0
 11 10  2  0  0  0  0
 11 12  1  0  0  0  0
 12 13  2  0  0  0  0
 13 14  1  0  0  0  0
 13 16  1  0  0  0  0
 15 18  1  0  0  0  0
 15 14  2  0  0  0  0
 16 17  1  0  0  0  0
 18 19  1  0  0  0  0
 20 22  1  0  0  0  0
 20  2  1  0  0  0  0
 21 20  1  0  0  0  0
 24 23  1  0  0  0  0
M  END
>  <MODEL>
5

>  <REMARK>
  Name = ZINC50988320
                            x       y       z     vdW  Elec       q    Type
                         _______ _______ _______ _____ _____    ______ ____

>  <TORSDO>
F 5

>  <minimizedAffinity>
-6.9459304391470704

$$$$
ZINC50988320
 OpenBabel10211215243D

 24 25  0  0  1  0  0  0  0  0999 V2000
   44.9570   47.0800   13.4400 C   0  0  2  0  0  0  0  0  0  0  0  0
   44.6250   45.9510   14.1330 N   0  0  0  0  0  0  0  0  0  0  0  0
   44.4640   46.2460   15.4700 C   0  0  2  0  0  0  0  0  0  0  0  0
   44.1550   45.4350   16.4280 N   0  0  0  0  0  0  0  0  0  0  0  0
   44.0100   44.4950   16.2390 H   0  0  0  0  0  0  0  0  0  0  0  0
   44.0670   45.7670   17.3350 H   0  0  0  0  0  0  0  0  0  0  0  0
   44.7260   47.7370   15.5640 C   0  0  2  0  0  0  0  0  0  0  0  0
   45.0300   48.1290   14.1790 N   0  0  0  0  0  0  0  0  0  0  0  0
   45.2460   49.0250   13.8760 H   0  0  0  0  0  0  0  0  0  0  0  0
   45.9050   48.0120   16.4620 C   0  0  0  0  0  0  0  0  0  0  0  0
   47.1590   48.2040   15.9140 C   0  0  0  0  0  0  0  0  0  0  0  0
   48.2430   48.4560   16.7350 C   0  0  0  0  0  0  0  0  0  0  0  0
   48.0720   48.5150   18.1110 C   0  0  0  0  0  0  0  0  0  0  0  0
   46.8160   48.3220   18.6630 C   0  0  0  0  0  0  0  0  0  0  0  0
   45.7300   48.0750   17.8370 C   0  0  0  0  0  0  0  0  0  0  0  0
   49.1390   48.7630   18.9170 O   0  0  0  0  0  0  0  0  0  0  0  0
   49.8110   50.0110   18.7400 C   0  0  0  0  0  0  0  0  0  0  0  0
   44.4950   47.8920   18.3740 O   0  0  0  0  0  0  0  0  0  0  0  0
   44.4150   47.1020   19.5620 C   0  0  0  0  0  0  0  0  0  0  0  0
   44.4680   44.6190   13.5430 C   0  0  0  0  0  0  0  0  0  0  0  0
   42.9830   44.2460   13.5150 C   0  0  0  0  0  0  0  0  0  0  0  0
   45.2350   43.5950   14.3810 C   0  0  0  0  0  0  0  0  0  0  0  0
   45.6600   48.4930   11.5270 C   0  0  0  0  0  0  0  0  0  0  0  0
   45.2060   47.0960   11.9540 C   0  0  0  0  0  0  0  0  0  0  0  0
  1 24  1  6  0  0  0
  1  2  1  0  0  0  0
  1  8  1  0  0  0  0
  2  3  1  0  0  0  0
  3  7  1  0  0  0  0
  3  4  1  6  0  0  0
  4  6  1  0  0  0  0
  5  4  1  0  0  0  0
  7 10  1  6  0  0  0
  8  7  1  0  0  0  0
  9  8  1  0  0  0  0
 10 15  1  0  0  0  0
 11 10  2  0  0  0  0
 11 12  1  0  0  0  0
 12 13  2  0  0  0  0
 13 14  1  0  0  0  0
 13 16  1  0  0  0  0
 15 18  1  0  0  0  0
 15 14  2  0  0  0  0
 17 16  1  0  0  0  0
 18 19  1  0  0  0  0
 20  2  1  0  0  0  0
 20 22  1  0  0  0  0
 21 20  1  0  0  0  0
 23 24  1  0  0  0  0
M  END
>  <MODEL>
6

>  <REMARK>
  Name = ZINC50988320
                            x       y       z     vdW  Elec       q    Type
                         _______ _______ _______ _____ _____    ______ ____

>  <TORSDO>
F 5

>  <minimizedAffinity>
-6.6117784191427829

$$$$
ZINC50988320
 OpenBabel10211215243D

 24 25  0  0  1  0  0  0  0  0999 V2000
   49.3780   49.7150   18.7540 C   0  0  2  0  0  0  0  0  0  0  0  0
   49.4130   50.9550   18.1820 N   0  0  0  0  0  0  0  0  0  0  0  0
   48.2010   51.2380   17.5910 C   0  0  2  0  0  0  0  0  0  0  0  0
   47.8620   52.3100   16.9530 N   0  0  0  0  0  0  0  0  0  0  0  0
   48.5010   53.0320   16.8450 H   0  0  0  0  0  0  0  0  0  0  0  0
   46.9700   52.3930   16.5820 H   0  0  0  0  0  0  0  0  0  0  0  0
   47.3500   50.0120   17.8620 C   0  0  2  0  0  0  0  0  0  0  0  0
   48.2460   49.1220   18.6180 N   0  0  0  0  0  0  0  0  0  0  0  0
   48.0200   48.2410   18.9560 H   0  0  0  0  0  0  0  0  0  0  0  0
   46.9290   49.3630   16.5690 C   0  0  0  0  0  0  0  0  0  0  0  0
   47.8080   49.3140   15.5040 C   0  0  0  0  0  0  0  0  0  0  0  0
   47.4250   48.7200   14.3160 C   0  0  0  0  0  0  0  0  0  0  0  0
   46.1570   48.1720   14.1910 C   0  0  0  0  0  0  0  0  0  0  0  0
   45.2730   48.2200   15.2570 C   0  0  0  0  0  0  0  0  0  0  0  0
   45.6620   48.8110   16.4500 C   0  0  0  0  0  0  0  0  0  0  0  0
   45.7810   47.5880   13.0220 O   0  0  0  0  0  0  0  0  0  0  0  0
   45.6050   48.4470   11.8940 C   0  0  0  0  0  0  0  0  0  0  0  0
   44.8000   48.8550   17.5000 O   0  0  0  0  0  0  0  0  0  0  0  0
   44.6110   47.6450   18.2350 C   0  0  0  0  0  0  0  0  0  0  0  0
   50.5720   51.8510   18.1910 C   0  0  0  0  0  0  0  0  0  0  0  0
   51.8340   51.0550   17.8500 C   0  0  0  0  0  0  0  0  0  0  0  0
   50.7230   52.4770   19.5800 C   0  0  0  0  0  0  0  0  0  0  0  0
   50.2530   49.0590   20.9800 C   0  0  0  0  0  0  0  0  0  0  0  0
   50.5500   49.1050   19.4800 C   0  0  0  0  0  0  0  0  0  0  0  0
  1 24  1  1  0  0  0
  2 20  1  0  0  0  0
  2  1  1  0  0  0  0
  3  4  1  1  0  0  0
  3  7  1  0  0  0  0
  3  2  1  0  0  0  0
  5  4  1  0  0  0  0
  6  4  1  0  0  0  0
  7 10  1  6  0  0  0
  7  8  1  0  0  0  0
  8  1  1  0  0  0  0
  8  9  1  0  0  0  0
 11 10  2  0  0  0  0
 12 11  1  0  0  0  0
 13 12  2  0  0  0  0
 13 14  1  0  0  0  0
 14 15  2  0  0  0  0
 15 10  1  0  0  0  0
 15 18  1  0  0  0  0
 16 13  1  0  0  0  0
 17 16  1  0  0  0  0
 18 19  1  0  0  0  0
 20 22  1  0  0  0  0
 21 20  1  0  0  0  0
 24 23  1  0  0  0  0
M  END
>  <MODEL>
7

>  <REMARK>
  Name = ZINC50988320
                            x       y       z     vdW  Elec       q    Type
                         _______ _______ _______ _____ _____    ______ ____

>  <TORSDO>
F 5

>  <minimizedAffinity>
-6.525162133625642

$$$$
ZINC50988320
 OpenBabel10211215243D

 24 25  0  0  1  0  0  0  0  0999 V2000
   50.0620   54.4240   20.3300 C   0  0  2  0  0  0  0  0  0  0  0  0
   50.7070   55.5870   20.6430 N   0  0  0  0  0  0  0  0  0  0  0  0
   49.8670   56.6610   20.4500 C   0  0  2  0  0  0  0  0  0  0  0  0
   50.1260   57.9140   20.6380 N   0  0  0  0  0  0  0  0  0  0  0  0
   51.0050   58.1850   20.9480 H   0  0  0  0  0  0  0  0  0  0  0  0
   49.4440   58.5820   20.4680 H   0  0  0  0  0  0  0  0  0  0  0  0
   48.5650   56.0450   19.9730 C   0  0  2  0  0  0  0  0  0  0  0  0
   48.8480   54.6020   19.9470 N   0  0  0  0  0  0  0  0  0  0  0  0
   48.2250   53.9050   19.6860 H   0  0  0  0  0  0  0  0  0  0  0  0
   48.2190   56.5420   18.5930 C   0  0  0  0  0  0  0  0  0  0  0  0
   48.4640   55.7450   17.4920 C   0  0  0  0  0  0  0  0  0  0  0  0
   48.1480   56.1970   16.2240 C   0  0  0  0  0  0  0  0  0  0  0  0
   47.5830   57.4530   16.0560 C   0  0  0  0  0  0  0  0  0  0  0  0
   47.3370   58.2550   17.1590 C   0  0  0  0  0  0  0  0  0  0  0  0
   47.6500   57.7970   18.4300 C   0  0  0  0  0  0  0  0  0  0  0  0
   47.2730   57.8980   14.8100 O   0  0  0  0  0  0  0  0  0  0  0  0
   46.8070   56.9260   13.8710 C   0  0  0  0  0  0  0  0  0  0  0  0
   47.4030   58.5780   19.5150 O   0  0  0  0  0  0  0  0  0  0  0  0
   47.1050   59.9530   19.2700 C   0  0  0  0  0  0  0  0  0  0  0  0
   52.0920   55.6780   21.1120 C   0  0  0  0  0  0  0  0  0  0  0  0
   52.1080   56.1450   22.5700 C   0  0  0  0  0  0  0  0  0  0  0  0
   52.8590   56.6810   20.2470 C   0  0  0  0  0  0  0  0  0  0  0  0
   50.6600   52.5840   21.8810 C   0  0  0  0  0  0  0  0  0  0  0  0
   50.7080   53.0660   20.4300 C   0  0  0  0  0  0  0  0  0  0  0  0
  1 24  1  1  0  0  0
  1  2  1  0  0  0  0
  2 20  1  0  0  0  0
  3  4  1  1  0  0  0
  3  2  1  0  0  0  0
  4  5  1  0  0  0  0
  6  4  1  0  0  0  0
  7 10  1  6  0  0  0
  7  3  1  0  0  0  0
  8  7  1  0  0  0  0
  8  1  1  0  0  0  0
  9  8  1  0  0  0  0
 11 10  2  0  0  0  0
 12 11  1  0  0  0  0
 13 12  2  0  0  0  0
 13 14  1  0  0  0  0
 14 15  2  0  0  0  0
 15 10  1  0  0  0  0
 15 18  1  0  0  0  0
 16 13  1  0  0  0  0
 17 16  1  0  0  0  0
 19 18  1  0  0  0  0
 20 21  1  0  0  0  0
 22 20  1  0  0  0  0
 24 23  1  0  0  0  0
M  END
>  <MODEL>
8

>  <REMARK>
  Name = ZINC50988320
                            x       y       z     vdW  Elec       q    Type
                         _______ _______ _______ _____ _____    ______ ____

>  <TORSDO>
F 5

>  <minimizedAffinity>
-6.39715308649766

$$$$
ZINC50988320
 OpenBabel10211215243D

 24 25  0  0  1  0  0  0  0  0999 V2000
   50.8150   51.4710   20.2320 C   0  0  2  0  0  0  0  0  0  0  0  0
   51.6640   51.9730   19.2860 N   0  0  0  0  0  0  0  0  0  0  0  0
   52.1080   53.2210   19.6630 C   0  0  2  0  0  0  0  0  0  0  0  0
   52.9160   54.0010   19.0230 N   0  0  0  0  0  0  0  0  0  0  0  0
   53.2800   53.7250   18.1670 H   0  0  0  0  0  0  0  0  0  0  0  0
   53.1580   54.8620   19.3970 H   0  0  0  0  0  0  0  0  0  0  0  0
   51.4410   53.4730   21.0030 C   0  0  2  0  0  0  0  0  0  0  0  0
   50.6430   52.2590   21.2320 N   0  0  0  0  0  0  0  0  0  0  0  0
   50.0840   52.0840   22.0060 H   0  0  0  0  0  0  0  0  0  0  0  0
   50.5500   54.6870   20.9300 C   0  0  0  0  0  0  0  0  0  0  0  0
   49.3530   54.6230   20.2450 C   0  0  0  0  0  0  0  0  0  0  0  0
   48.5330   55.7340   20.1760 C   0  0  0  0  0  0  0  0  0  0  0  0
   48.9130   56.9160   20.7960 C   0  0  0  0  0  0  0  0  0  0  0  0
   50.1140   56.9830   21.4840 C   0  0  0  0  0  0  0  0  0  0  0  0
   50.9320   55.8650   21.5560 C   0  0  0  0  0  0  0  0  0  0  0  0
   48.1060   58.0080   20.7280 O   0  0  0  0  0  0  0  0  0  0  0  0
   47.7350   58.4610   19.4250 C   0  0  0  0  0  0  0  0  0  0  0  0
   52.1070   55.9250   22.2350 O   0  0  0  0  0  0  0  0  0  0  0  0
   52.9280   57.0720   22.0110 C   0  0  0  0  0  0  0  0  0  0  0  0
   52.0420   51.2860   18.0480 C   0  0  0  0  0  0  0  0  0  0  0  0
   50.7780   50.8800   17.2840 C   0  0  0  0  0  0  0  0  0  0  0  0
   52.8560   50.0360   18.3860 C   0  0  0  0  0  0  0  0  0  0  0  0
   50.6820   49.1970   21.2130 C   0  0  0  0  0  0  0  0  0  0  0  0
   50.1510   50.1230   20.1160 C   0  0  0  0  0  0  0  0  0  0  0  0
  1 24  1  1  0  0  0
  1  8  1  0  0  0  0
  2  3  1  0  0  0  0
  2  1  1  0  0  0  0
  3  4  1  1  0  0  0
  3  7  1  0  0  0  0
  4  6  1  0  0  0  0
  5  4  1  0  0  0  0
  7 10  1  6  0  0  0
  7  8  1  0  0  0  0
  8  9  1  0  0  0  0
 10 15  2  0  0  0  0
 11 10  1  0  0  0  0
 12 11  2  0  0  0  0
 12 13  1  0  0  0  0
 13 14  2  0  0  0  0
 14 15  1  0  0  0  0
 15 18  1  0  0  0  0
 16 13  1  0  0  0  0
 17 16  1  0  0  0  0
 19 18  1  0  0  0  0
 20 22  1  0  0  0  0
 20  2  1  0  0  0  0
 21 20  1  0  0  0  0
 24 23  1  0  0  0  0
M  END
>  <MODEL>
9

>  <REMARK>
  Name = ZINC50988320
                            x       y       z     vdW  Elec       q    Type
                         _______ _______ _______ _____ _____    ______ ____

>  <TORSDO>
F 5

>  <minimizedAffinity>
-6.275833338889468

$$$$
ZINC00175000
 OpenBabel10211215253D

 21 22  0  0  1  0  0  0  0  0999 V2000
   49.7000   53.1940   18.0620 N   0  0  0  0  0  0  0  0  0  0  0  0
   49.4580   53.2900   17.1270 H   0  0  0  0  0  0  0  0  0  0  0  0
   49.9820   51.9750   18.5640 C   0  0  0  0  0  0  0  0  0  0  0  0
   50.2840   51.8560   19.7330 O   0  0  0  0  0  0  0  0  0  0  0  0
   48.6560   54.8970   19.2770 C   0  0  0  0  0  0  0  0  0  0  0  0
   49.7540   54.3220   18.8910 N   0  0  0  0  0  0  0  0  0  0  0  0
   48.8200   58.3140   21.7890 C   0  0  0  0  0  0  0  0  0  0  0  0
   47.7390   58.1310   20.9450 C   0  0  0  0  0  0  0  0  0  0  0  0
   47.6790   57.0240   20.1250 C   0  0  0  0  0  0  0  0  0  0  0  0
   48.7130   56.0840   20.1490 C   0  0  0  0  0  0  0  0  0  0  0  0
   49.8010   56.2750   21.0040 C   0  0  0  0  0  0  0  0  0  0  0  0
   49.8470   57.3880   21.8180 C   0  0  0  0  0  0  0  0  0  0  0  0
   49.9230   50.7610   17.6720 C   0  0  2  0  0  0  0  0  0  0  0  0
   48.5740   50.1050   17.8070 C   0  0  0  0  0  0  0  0  0  0  0  0
   48.3980   49.0580   18.6940 C   0  0  0  0  0  0  0  0  0  0  0  0
   47.1600   48.4560   18.8170 C   0  0  0  0  0  0  0  0  0  0  0  0
   46.0980   48.9000   18.0540 C   0  0  0  0  0  0  0  0  0  0  0  0
   46.2710   49.9460   17.1680 C   0  0  0  0  0  0  0  0  0  0  0  0
   47.5090   50.5520   17.0480 C   0  0  0  0  0  0  0  0  0  0  0  0
   50.9430   49.8380   18.0590 O   0  0  0  0  0  0  0  0  0  0  0  0
   51.7410   50.2560   18.4090 H   0  0  0  0  0  0  0  0  0  0  0  0
  1  3  1  0  0  0  0
  1  6  1  0  0  0  0
  2  1  1  0  0  0  0
  3  4  2  0  0  0  0
  5 10  1  0  0  0  0
  6  5  2  0  0  0  0
  7 12  1  0  0  0  0
  8  7  2  0  0  0  0
  9 10  2  0  0  0  0
  9  8  1  0  0  0  0
 10 11  1  0  0  0  0
 11 12  2  0  0  0  0
 13 14  1  1  0  0  0
 13 20  1  0  0  0  0
 13  3  1  0  0  0  0
 14 15  2  0  0  0  0
 15 16  1  0  0  0  0
 17 16  2  0  0  0  0
 18 17  1  0  0  0  0
 19 18  2  0  0  0  0
 19 14  1  0  0  0  0
 20 21  1  0  0  0  0
M  END
>  <MODEL>
1

>  <REMARK>
  Name = ZINC00175000
                            x       y       z     vdW  Elec       q    Type
                         _______ _______ _______ _____ _____    ______ ____

>  <TORSDO>
F 5

>  <minimizedAffinity>
-8.75018273233764

$$$$
ZINC00175000
 OpenBabel10211215253D

 21 22  0  0  1  0  0  0  0  0999 V2000
   49.5980   53.2100   18.0220 N   0  0  0  0  0  0  0  0  0  0  0  0
   49.3230   53.3240   17.0990 H   0  0  0  0  0  0  0  0  0  0  0  0
   49.9050   51.9820   18.4880 C   0  0  0  0  0  0  0  0  0  0  0  0
   50.2480   51.8410   19.6420 O   0  0  0  0  0  0  0  0  0  0  0  0
   48.5910   54.9440   19.2250 C   0  0  0  0  0  0  0  0  0  0  0  0
   49.6740   54.3200   18.8730 N   0  0  0  0  0  0  0  0  0  0  0  0
   48.8230   58.3090   21.8010 C   0  0  0  0  0  0  0  0  0  0  0  0
   49.8430   57.3740   21.7960 C   0  0  0  0  0  0  0  0  0  0  0  0
   49.7740   56.2780   20.9620 C   0  0  0  0  0  0  0  0  0  0  0  0
   48.6720   56.1130   20.1200 C   0  0  0  0  0  0  0  0  0  0  0  0
   47.6460   57.0610   20.1300 C   0  0  0  0  0  0  0  0  0  0  0  0
   47.7280   58.1520   20.9700 C   0  0  0  0  0  0  0  0  0  0  0  0
   49.8230   50.7870   17.5730 C   0  0  2  0  0  0  0  0  0  0  0  0
   48.4890   50.1080   17.7540 C   0  0  0  0  0  0  0  0  0  0  0  0
   47.3940   50.5300   17.0240 C   0  0  0  0  0  0  0  0  0  0  0  0
   46.1700   49.9080   17.1900 C   0  0  0  0  0  0  0  0  0  0  0  0
   46.0440   48.8640   18.0860 C   0  0  0  0  0  0  0  0  0  0  0  0
   47.1380   48.4410   18.8160 C   0  0  0  0  0  0  0  0  0  0  0  0
   48.3630   49.0610   18.6460 C   0  0  0  0  0  0  0  0  0  0  0  0
   50.8710   49.8710   17.8930 O   0  0  0  0  0  0  0  0  0  0  0  0
   51.1110   49.2780   17.1680 H   0  0  0  0  0  0  0  0  0  0  0  0
  1  3  1  0  0  0  0
  1  6  1  0  0  0  0
  2  1  1  0  0  0  0
  3  4  2  0  0  0  0
  5 10  1  0  0  0  0
  6  5  2  0  0  0  0
  8  7  1  0  0  0  0
  9  8  2  0  0  0  0
 10 11  2  0  0  0  0
 10  9  1  0  0  0  0
 11 12  1  0  0  0  0
 12  7  2  0  0  0  0
 13 14  1  1  0  0  0
 13 20  1  0  0  0  0
 13  3  1  0  0  0  0
 14 19  2  0  0  0  0
 15 16  2  0  0  0  0
 15 14  1  0  0  0  0
 16 17  1  0  0  0  0
 17 18  2  0  0  0  0
 19 18  1  0  0  0  0
 21 20  1  0  0  0  0
M  END
>  <MODEL>
2

>  <REMARK>
  Name = ZINC00175000
                            x       y       z     vdW  Elec       q    Type
                         _______ _______ _______ _____ _____    ______ ____

>  <TORSDO>
F 5

>  <minimizedAffinity>
-8.7206271831760791

$$$$
ZINC00175000
 OpenBabel10211215253D

 21 22  0  0  1  0  0  0  0  0999 V2000
   50.5650   50.0500   18.3350 N   0  0  0  0  0  0  0  0  0  0  0  0
   51.1660   49.4280   18.7760 H   0  0  0  0  0  0  0  0  0  0  0  0
   50.9320   51.3360   18.1640 C   0  0  0  0  0  0  0  0  0  0  0  0
   50.1800   52.1120   17.6120 O   0  0  0  0  0  0  0  0  0  0  0  0
   48.4000   49.2590   18.7260 C   0  0  0  0  0  0  0  0  0  0  0  0
   49.3160   49.6110   17.8760 N   0  0  0  0  0  0  0  0  0  0  0  0
   44.6170   47.9290   17.3360 C   0  0  0  0  0  0  0  0  0  0  0  0
   45.3640   48.8040   16.5680 C   0  0  0  0  0  0  0  0  0  0  0  0
   46.5940   49.2410   17.0130 C   0  0  0  0  0  0  0  0  0  0  0  0
   47.0860   48.7970   18.2430 C   0  0  0  0  0  0  0  0  0  0  0  0
   46.3260   47.9130   19.0140 C   0  0  0  0  0  0  0  0  0  0  0  0
   45.0970   47.4850   18.5550 C   0  0  0  0  0  0  0  0  0  0  0  0
   52.2750   51.8080   18.6570 C   0  0  2  0  0  0  0  0  0  0  0  0
   52.0780   52.8080   19.7680 C   0  0  0  0  0  0  0  0  0  0  0  0
   51.7190   52.3770   21.0310 C   0  0  0  0  0  0  0  0  0  0  0  0
   51.5380   53.2940   22.0490 C   0  0  0  0  0  0  0  0  0  0  0  0
   51.7160   54.6420   21.8040 C   0  0  0  0  0  0  0  0  0  0  0  0
   52.0770   55.0740   20.5420 C   0  0  0  0  0  0  0  0  0  0  0  0
   52.2620   54.1560   19.5240 C   0  0  0  0  0  0  0  0  0  0  0  0
   52.9870   52.4240   17.5820 O   0  0  0  0  0  0  0  0  0  0  0  0
   52.7140   53.3320   17.3990 H   0  0  0  0  0  0  0  0  0  0  0  0
  1  2  1  0  0  0  0
  3  1  1  0  0  0  0
  3 13  1  0  0  0  0
  4  3  2  0  0  0  0
  6  1  1  0  0  0  0
  6  5  2  0  0  0  0
  7 12  2  0  0  0  0
  8  9  2  0  0  0  0
  8  7  1  0  0  0  0
  9 10  1  0  0  0  0
 10  5  1  0  0  0  0
 10 11  2  0  0  0  0
 12 11  1  0  0  0  0
 13 20  1  6  0  0  0
 13 14  1  0  0  0  0
 14 15  1  0  0  0  0
 15 16  2  0  0  0  0
 17 16  1  0  0  0  0
 18 17  2  0  0  0  0
 19 14  2  0  0  0  0
 19 18  1  0  0  0  0
 21 20  1  0  0  0  0
M  END
>  <MODEL>
3

>  <REMARK>
  Name = ZINC00175000
                            x       y       z     vdW  Elec       q    Type
                         _______ _______ _______ _____ _____    ______ ____

>  <TORSDO>
F 5

>  <minimizedAffinity>
-8.2054349122006958

$$$$
ZINC00175000
 OpenBabel10211215253D

 21 22  0  0  1  0  0  0  0  0999 V2000
   49.9150   52.4110   18.2670 N   0  0  0  0  0  0  0  0  0  0  0  0
   50.5000   51.7610   18.6880 H   0  0  0  0  0  0  0  0  0  0  0  0
   49.1830   52.0610   17.1910 C   0  0  0  0  0  0  0  0  0  0  0  0
   48.4510   52.8750   16.6660 O   0  0  0  0  0  0  0  0  0  0  0  0
   49.6920   53.9020   20.0540 C   0  0  0  0  0  0  0  0  0  0  0  0
   49.8330   53.7140   18.7770 N   0  0  0  0  0  0  0  0  0  0  0  0
   49.4410   57.8470   21.6000 C   0  0  0  0  0  0  0  0  0  0  0  0
   48.4280   57.3580   20.7940 C   0  0  0  0  0  0  0  0  0  0  0  0
   48.5040   56.0770   20.2870 C   0  0  0  0  0  0  0  0  0  0  0  0
   49.6050   55.2730   20.5910 C   0  0  0  0  0  0  0  0  0  0  0  0
   50.6230   55.7740   21.4060 C   0  0  0  0  0  0  0  0  0  0  0  0
   50.5340   57.0570   21.9050 C   0  0  0  0  0  0  0  0  0  0  0  0
   49.2710   50.6610   16.6420 C   0  0  2  0  0  0  0  0  0  0  0  0
   48.1080   49.8490   17.1510 C   0  0  0  0  0  0  0  0  0  0  0  0
   48.1540   49.2920   18.4160 C   0  0  0  0  0  0  0  0  0  0  0  0
   47.0870   48.5470   18.8830 C   0  0  0  0  0  0  0  0  0  0  0  0
   45.9750   48.3580   18.0850 C   0  0  0  0  0  0  0  0  0  0  0  0
   45.9280   48.9150   16.8210 C   0  0  0  0  0  0  0  0  0  0  0  0
   46.9930   49.6640   16.3560 C   0  0  0  0  0  0  0  0  0  0  0  0
   50.4950   50.0590   17.0680 O   0  0  0  0  0  0  0  0  0  0  0  0
   51.2570   50.6530   17.0380 H   0  0  0  0  0  0  0  0  0  0  0  0
  1  2  1  0  0  0  0
  1  6  1  0  0  0  0
  3  1  1  0  0  0  0
  4  3  2  0  0  0  0
  5 10  1  0  0  0  0
  6  5  2  0  0  0  0
  7 12  1  0  0  0  0
  8  7  2  0  0  0  0
  9 10  2  0  0  0  0
  9  8  1  0  0  0  0
 10 11  1  0  0  0  0
 11 12  2  0  0  0  0
 13 20  1  1  0  0  0
 13 14  1  0  0  0  0
 13  3  1  0  0  0  0
 14 15  2  0  0  0  0
 15 16  1  0  0  0  0
 17 16  2  0  0  0  0
 18 17  1  0  0  0  0
 19 18  2  0  0  0  0
 19 14  1  0  0  0  0
 21 20  1  0  0  0  0
M  END
>  <MODEL>
4

>  <REMARK>
  Name = ZINC00175000
                            x       y       z     vdW  Elec       q    Type
                         _______ _______ _______ _____ _____    ______ ____

>  <TORSDO>
F 5

>  <minimizedAffinity>
-8.0770932819245012

$$$$
ZINC00175000
 OpenBabel10211215253D

 21 22  0  0  1  0  0  0  0  0999 V2000
   50.3820   53.4840   18.8560 N   0  0  0  0  0  0  0  0  0  0  0  0
   50.6550   53.9810   18.0690 H   0  0  0  0  0  0  0  0  0  0  0  0
   50.4980   54.0400   20.0790 C   0  0  0  0  0  0  0  0  0  0  0  0
   50.1550   53.4180   21.0620 O   0  0  0  0  0  0  0  0  0  0  0  0
   48.9470   51.9430   17.8410 C   0  0  0  0  0  0  0  0  0  0  0  0
   49.8670   52.1870   18.7230 N   0  0  0  0  0  0  0  0  0  0  0  0
   47.3870   48.0160   17.4360 C   0  0  0  0  0  0  0  0  0  0  0  0
   46.5880   49.1080   17.1460 C   0  0  0  0  0  0  0  0  0  0  0  0
   47.0880   50.3870   17.2760 C   0  0  0  0  0  0  0  0  0  0  0  0
   48.4050   50.5780   17.7000 C   0  0  0  0  0  0  0  0  0  0  0  0
   49.2060   49.4720   17.9900 C   0  0  0  0  0  0  0  0  0  0  0  0
   48.6930   48.1980   17.8560 C   0  0  0  0  0  0  0  0  0  0  0  0
   51.0510   55.4340   20.2230 C   0  0  2  0  0  0  0  0  0  0  0  0
   49.9310   56.3860   20.5550 C   0  0  0  0  0  0  0  0  0  0  0  0
   48.7750   56.3860   19.7980 C   0  0  0  0  0  0  0  0  0  0  0  0
   47.7470   57.2590   20.1030 C   0  0  0  0  0  0  0  0  0  0  0  0
   47.8770   58.1330   21.1650 C   0  0  0  0  0  0  0  0  0  0  0  0
   49.0320   58.1340   21.9240 C   0  0  0  0  0  0  0  0  0  0  0  0
   50.0570   57.2570   21.6210 C   0  0  0  0  0  0  0  0  0  0  0  0
   51.6650   55.8320   18.9950 O   0  0  0  0  0  0  0  0  0  0  0  0
   51.8410   55.1010   18.3890 H   0  0  0  0  0  0  0  0  0  0  0  0
  1  3  1  0  0  0  0
  2  1  1  0  0  0  0
  3 13  1  0  0  0  0
  3  4  2  0  0  0  0
  5  6  2  0  0  0  0
  6  1  1  0  0  0  0
  7 12  2  0  0  0  0
  8  9  2  0  0  0  0
  8  7  1  0  0  0  0
  9 10  1  0  0  0  0
 10  5  1  0  0  0  0
 10 11  2  0  0  0  0
 12 11  1  0  0  0  0
 13 20  1  6  0  0  0
 13 14  1  0  0  0  0
 14 19  2  0  0  0  0
 15 16  2  0  0  0  0
 15 14  1  0  0  0  0
 16 17  1  0  0  0  0
 17 18  2  0  0  0  0
 19 18  1  0  0  0  0
 21 20  1  0  0  0  0
M  END
>  <MODEL>
5

>  <REMARK>
  Name = ZINC00175000
                            x       y       z     vdW  Elec       q    Type
                         _______ _______ _______ _____ _____    ______ ____

>  <TORSDO>
F 5

>  <minimizedAffinity>
-7.6183690807263451

$$$$
ZINC00175000
 OpenBabel10211215253D

 21 22  0  0  1  0  0  0  0  0999 V2000
   50.3710   51.9080   18.7400 N   0  0  0  0  0  0  0  0  0  0  0  0
   50.9650   51.1410   18.7630 H   0  0  0  0  0  0  0  0  0  0  0  0
   49.3370   51.9340   17.8740 C   0  0  0  0  0  0  0  0  0  0  0  0
   48.5950   52.8930   17.8460 O   0  0  0  0  0  0  0  0  0  0  0  0
   51.6340   53.7420   19.4520 C   0  0  0  0  0  0  0  0  0  0  0  0
   50.5870   52.9890   19.6040 N   0  0  0  0  0  0  0  0  0  0  0  0
   52.2910   57.0180   22.0690 C   0  0  0  0  0  0  0  0  0  0  0  0
   52.6130   57.1320   20.7280 C   0  0  0  0  0  0  0  0  0  0  0  0
   52.4030   56.0720   19.8720 C   0  0  0  0  0  0  0  0  0  0  0  0
   51.8630   54.8800   20.3610 C   0  0  0  0  0  0  0  0  0  0  0  0
   51.5400   54.7710   21.7160 C   0  0  0  0  0  0  0  0  0  0  0  0
   51.7550   55.8410   22.5600 C   0  0  0  0  0  0  0  0  0  0  0  0
   49.1040   50.7710   16.9450 C   0  0  2  0  0  0  0  0  0  0  0  0
   47.9430   49.9520   17.4480 C   0  0  0  0  0  0  0  0  0  0  0  0
   46.6970   50.0870   16.8660 C   0  0  0  0  0  0  0  0  0  0  0  0
   45.6320   49.3360   17.3280 C   0  0  0  0  0  0  0  0  0  0  0  0
   45.8140   48.4500   18.3720 C   0  0  0  0  0  0  0  0  0  0  0  0
   47.0600   48.3140   18.9540 C   0  0  0  0  0  0  0  0  0  0  0  0
   48.1260   49.0620   18.4890 C   0  0  0  0  0  0  0  0  0  0  0  0
   50.2770   49.9560   16.8980 O   0  0  0  0  0  0  0  0  0  0  0  0
   50.2430   49.1850   17.4780 H   0  0  0  0  0  0  0  0  0  0  0  0
  1  2  1  0  0  0  0
  1  6  1  0  0  0  0
  3  1  1  0  0  0  0
  4  3  2  0  0  0  0
  5  6  2  0  0  0  0
  5 10  1  0  0  0  0
  7 12  1  0  0  0  0
  8  7  2  0  0  0  0
  9 10  2  0  0  0  0
  9  8  1  0  0  0  0
 10 11  1  0  0  0  0
 11 12  2  0  0  0  0
 13 20  1  1  0  0  0
 13 14  1  0  0  0  0
 13  3  1  0  0  0  0
 14 19  2  0  0  0  0
 15 16  2  0  0  0  0
 15 14  1  0  0  0  0
 16 17  1  0  0  0  0
 17 18  2  0  0  0  0
 19 18  1  0  0  0  0
 20 21  1  0  0  0  0
M  END
>  <MODEL>
6

>  <REMARK>
  Name = ZINC00175000
                            x       y       z     vdW  Elec       q    Type
                         _______ _______ _______ _____ _____    ______ ____

>  <TORSDO>
F 5

>  <minimizedAffinity>
-7.583291953541595

$$$$
ZINC00175000
 OpenBabel10211215253D

 21 22  0  0  1  0  0  0  0  0999 V2000
   50.7780   50.4480   16.7330 N   0  0  0  0  0  0  0  0  0  0  0  0
   51.4190   49.7240   16.6530 H   0  0  0  0  0  0  0  0  0  0  0  0
   49.7170   50.5030   15.9040 C   0  0  0  0  0  0  0  0  0  0  0  0
   48.9160   51.4090   16.0040 O   0  0  0  0  0  0  0  0  0  0  0  0
   50.5820   51.2170   18.9320 C   0  0  0  0  0  0  0  0  0  0  0  0
   50.9570   51.4370   17.7090 N   0  0  0  0  0  0  0  0  0  0  0  0
   51.1220   54.2140   21.8880 C   0  0  0  0  0  0  0  0  0  0  0  0
   51.7030   52.9690   22.0560 C   0  0  0  0  0  0  0  0  0  0  0  0
   51.5310   51.9900   21.0990 C   0  0  0  0  0  0  0  0  0  0  0  0
   50.7690   52.2580   19.9590 C   0  0  0  0  0  0  0  0  0  0  0  0
   50.1860   53.5170   19.7970 C   0  0  0  0  0  0  0  0  0  0  0  0
   50.3670   54.4860   20.7620 C   0  0  0  0  0  0  0  0  0  0  0  0
   49.5240   49.4400   14.8540 C   0  0  2  0  0  0  0  0  0  0  0  0
   48.4020   48.5230   15.2690 C   0  0  0  0  0  0  0  0  0  0  0  0
   47.1650   48.6240   14.6620 C   0  0  0  0  0  0  0  0  0  0  0  0
   46.1360   47.7830   15.0430 C   0  0  0  0  0  0  0  0  0  0  0  0
   46.3450   46.8410   16.0320 C   0  0  0  0  0  0  0  0  0  0  0  0
   47.5820   46.7390   16.6390 C   0  0  0  0  0  0  0  0  0  0  0  0
   48.6120   47.5770   16.2550 C   0  0  0  0  0  0  0  0  0  0  0  0
   50.7290   48.6850   14.7150 O   0  0  0  0  0  0  0  0  0  0  0  0
   50.9460   48.1430   15.4850 H   0  0  0  0  0  0  0  0  0  0  0  0
  1  6  1  0  0  0  0
  2  1  1  0  0  0  0
  3  4  2  0  0  0  0
  3  1  1  0  0  0  0
  5 10  1  0  0  0  0
  6  5  2  0  0  0  0
  7  8  1  0  0  0  0
  9  8  2  0  0  0  0
 10  9  1  0  0  0  0
 11 10  2  0  0  0  0
 11 12  1  0  0  0  0
 12  7  2  0  0  0  0
 13 20  1  1  0  0  0
 13 14  1  0  0  0  0
 13  3  1  0  0  0  0
 14 19  2  0  0  0  0
 15 16  2  0  0  0  0
 15 14  1  0  0  0  0
 16 17  1  0  0  0  0
 17 18  2  0  0  0  0
 19 18  1  0  0  0  0
 20 21  1  0  0  0  0
M  END
>  <MODEL>
7

>  <REMARK>
  Name = ZINC00175000
                            x       y       z     vdW  Elec       q    Type
                         _______ _______ _______ _____ _____    ______ ____

>  <TORSDO>
F 5

>  <minimizedAffinity>
-7.4734428713407253

$$$$
ZINC00175000
 OpenBabel10211215253D

 21 22  0  0  1  0  0  0  0  0999 V2000
   49.8710   53.1260   19.2140 N   0  0  0  0  0  0  0  0  0  0  0  0
   49.2670   52.8190   19.9090 H   0  0  0  0  0  0  0  0  0  0  0  0
   50.7750   54.0880   19.4820 C   0  0  0  0  0  0  0  0  0  0  0  0
   51.5300   54.4700   18.6120 O   0  0  0  0  0  0  0  0  0  0  0  0
   49.5500   51.3030   17.7850 C   0  0  0  0  0  0  0  0  0  0  0  0
   49.8010   52.5690   17.9300 N   0  0  0  0  0  0  0  0  0  0  0  0
   49.3390   49.6160   13.8960 C   0  0  0  0  0  0  0  0  0  0  0  0
   48.1930   50.1070   14.4970 C   0  0  0  0  0  0  0  0  0  0  0  0
   48.2540   50.6560   15.7610 C   0  0  0  0  0  0  0  0  0  0  0  0
   49.4770   50.7170   16.4340 C   0  0  0  0  0  0  0  0  0  0  0  0
   50.6290   50.2190   15.8220 C   0  0  0  0  0  0  0  0  0  0  0  0
   50.5530   49.6730   14.5570 C   0  0  0  0  0  0  0  0  0  0  0  0
   50.8510   54.6880   20.8630 C   0  0  2  0  0  0  0  0  0  0  0  0
   49.9170   55.8680   20.9490 C   0  0  0  0  0  0  0  0  0  0  0  0
   48.7540   55.8850   20.2020 C   0  0  0  0  0  0  0  0  0  0  0  0
   47.8970   56.9670   20.2810 C   0  0  0  0  0  0  0  0  0  0  0  0
   48.2050   58.0320   21.1060 C   0  0  0  0  0  0  0  0  0  0  0  0
   49.3670   58.0150   21.8540 C   0  0  0  0  0  0  0  0  0  0  0  0
   50.2210   56.9310   21.7780 C   0  0  0  0  0  0  0  0  0  0  0  0
   52.1880   55.1190   21.1220 O   0  0  0  0  0  0  0  0  0  0  0  0
   52.2490   55.9960   21.5230 H   0  0  0  0  0  0  0  0  0  0  0  0
  1  3  1  0  0  0  0
  1  2  1  0  0  0  0
  4  3  2  0  0  0  0
  5  6  2  0  0  0  0
  6  1  1  0  0  0  0
  7  8  2  0  0  0  0
  7 12  1  0  0  0  0
  8  9  1  0  0  0  0
  9 10  2  0  0  0  0
 10  5  1  0  0  0  0
 11 10  1  0  0  0  0
 12 11  2  0  0  0  0
 13  3  1  6  0  0  0
 13 14  1  0  0  0  0
 13 20  1  0  0  0  0
 14 19  2  0  0  0  0
 15 16  2  0  0  0  0
 15 14  1  0  0  0  0
 16 17  1  0  0  0  0
 17 18  2  0  0  0  0
 19 18  1  0  0  0  0
 20 21  1  0  0  0  0
M  END
>  <MODEL>
8

>  <REMARK>
  Name = ZINC00175000
                            x       y       z     vdW  Elec       q    Type
                         _______ _______ _______ _____ _____    ______ ____

>  <TORSDO>
F 5

>  <minimizedAffinity>
-7.2829920537900259

$$$$
ZINC00175000
 OpenBabel10211215253D

 21 22  0  0  1  0  0  0  0  0999 V2000
   50.1150   50.2020   17.1650 N   0  0  0  0  0  0  0  0  0  0  0  0
   50.4980   49.3280   17.3400 H   0  0  0  0  0  0  0  0  0  0  0  0
   49.2760   50.3750   16.1240 C   0  0  0  0  0  0  0  0  0  0  0  0
   48.7970   51.4680   15.9070 O   0  0  0  0  0  0  0  0  0  0  0  0
   50.3210   51.1720   19.2830 C   0  0  0  0  0  0  0  0  0  0  0  0
   50.4340   51.2860   17.9940 N   0  0  0  0  0  0  0  0  0  0  0  0
   51.2860   54.4540   21.7950 C   0  0  0  0  0  0  0  0  0  0  0  0
   50.6010   54.6700   20.6120 C   0  0  0  0  0  0  0  0  0  0  0  0
   50.2840   53.6090   19.7910 C   0  0  0  0  0  0  0  0  0  0  0  0
   50.6570   52.3120   20.1550 C   0  0  0  0  0  0  0  0  0  0  0  0
   51.3480   52.1020   21.3510 C   0  0  0  0  0  0  0  0  0  0  0  0
   51.6580   53.1740   22.1620 C   0  0  0  0  0  0  0  0  0  0  0  0
   48.9330   49.2100   15.2320 C   0  0  2  0  0  0  0  0  0  0  0  0
   47.4910   48.8230   15.4450 C   0  0  0  0  0  0  0  0  0  0  0  0
   46.7250   48.3950   14.3780 C   0  0  0  0  0  0  0  0  0  0  0  0
   45.4030   48.0410   14.5730 C   0  0  0  0  0  0  0  0  0  0  0  0
   44.8480   48.1160   15.8370 C   0  0  0  0  0  0  0  0  0  0  0  0
   45.6140   48.5430   16.9040 C   0  0  0  0  0  0  0  0  0  0  0  0
   46.9370   48.8930   16.7100 C   0  0  0  0  0  0  0  0  0  0  0  0
   49.7750   48.1010   15.5520 O   0  0  0  0  0  0  0  0  0  0  0  0
   49.3590   47.4420   16.1220 H   0  0  0  0  0  0  0  0  0  0  0  0
  1  2  1  0  0  0  0
  1  6  1  0  0  0  0
  3  1  1  0  0  0  0
  4  3  2  0  0  0  0
  5 10  1  0  0  0  0
  6  5  2  0  0  0  0
  7 12  1  0  0  0  0
  8  7  2  0  0  0  0
  9 10  2  0  0  0  0
  9  8  1  0  0  0  0
 10 11  1  0  0  0  0
 11 12  2  0  0  0  0
 13 14  1  1  0  0  0
 13 20  1  0  0  0  0
 13  3  1  0  0  0  0
 14 19  2  0  0  0  0
 15 16  2  0  0  0  0
 15 14  1  0  0  0  0
 16 17  1  0  0  0  0
 17 18  2  0  0  0  0
 19 18  1  0  0  0  0
 20 21  1  0  0  0  0
M  END
>  <MODEL>
9

>  <REMARK>
  Name = ZINC00175000
                            x       y       z     vdW  Elec       q    Type
                         _______ _______ _______ _____ _____    ______ ____

>  <TORSDO>
F 5

>  <minimizedAffinity>
-7.1810454948256437

$$$$
ZINC33466044
 OpenBabel10211215253D

 20 21  0  0  1  0  0  0  0  0999 V2000
   50.9860   56.6930   21.6190 C   0  0  1  0  0  0  0  0  0  0  0  0
   51.4120   55.3800   21.0130 C   0  0  0  0  0  0  0  0  0  0  0  0
   52.0610   55.3640   19.7920 C   0  0  0  0  0  0  0  0  0  0  0  0
   52.4510   54.1630   19.2300 C   0  0  0  0  0  0  0  0  0  0  0  0
   52.1970   52.9710   19.8940 C   0  0  0  0  0  0  0  0  0  0  0  0
   51.5470   52.9880   21.1210 C   0  0  0  0  0  0  0  0  0  0  0  0
   51.2890   51.8300   21.7890 O   0  0  0  0  0  0  0  0  0  0  0  0
   51.3590   50.6200   21.0280 C   0  0  0  0  0  0  0  0  0  0  0  0
   52.6430   50.6540   20.1900 C   0  0  0  0  0  0  0  0  0  0  0  0
   52.5850   51.7960   19.3270 O   0  0  0  0  0  0  0  0  0  0  0  0
   51.1550   54.1970   21.6780 C   0  0  0  0  0  0  0  0  0  0  0  0
   49.0490   58.2240   22.0040 C   0  0  0  0  0  0  0  0  0  0  0  0
   49.5150   56.9540   21.2890 C   0  0  0  0  0  0  0  0  0  0  0  0
   51.1530   56.6380   23.0380 O   0  0  0  0  0  0  0  0  0  0  0  0
   50.7370   55.7960   23.6090 H   0  0  0  0  0  0  0  0  0  0  0  0
   51.8450   57.8220   21.0480 C   0  0  0  0  0  0  0  0  0  0  0  0
   52.7840   58.2910   22.0770 N   0  0  0  0  0  0  0  0  0  0  0  0
   52.5440   57.8130   23.0380 H   0  0  0  0  0  0  0  0  0  0  0  0
   52.6990   59.3830   22.1790 H   0  0  0  0  0  0  0  0  0  0  0  0
   54.1690   57.9570   21.7170 C   0  0  0  0  0  0  0  0  0  0  0  0
  1  2  1  6  0  0  0
  1 14  1  0  0  0  0
  2 11  2  0  0  0  0
  3  2  1  0  0  0  0
  4  3  2  0  0  0  0
  4  5  1  0  0  0  0
  5  6  2  0  0  0  0
  6 11  1  0  0  0  0
  6  7  1  0  0  0  0
  8  7  1  0  0  0  0
  9  8  1  0  0  0  0
 10  5  1  0  0  0  0
 10  9  1  0  0  0  0
 13  1  1  0  0  0  0
 13 12  1  0  0  0  0
 14 15  1  0  0  0  0
 16  1  1  0  0  0  0
 16 17  1  0  0  0  0
 17 19  1  0  0  0  0
 17 18  1  0  0  0  0
 20 17  1  0  0  0  0
M  END
>  <MODEL>
1

>  <REMARK>
  Name = ZINC33466044
                            x       y       z     vdW  Elec       q    Type
                         _______ _______ _______ _____ _____    ______ ____

>  <TORSDO>
F 5

>  <minimizedAffinity>
-6.995278715280854

$$$$
ZINC33466044
 OpenBabel10211215253D

 20 21  0  0  1  0  0  0  0  0999 V2000
   50.8610   56.7170   21.5100 C   0  0  1  0  0  0  0  0  0  0  0  0
   51.2390   55.2920   21.1960 C   0  0  0  0  0  0  0  0  0  0  0  0
   51.4140   54.3840   22.2240 C   0  0  0  0  0  0  0  0  0  0  0  0
   51.7650   53.0770   21.9420 C   0  0  0  0  0  0  0  0  0  0  0  0
   51.9370   52.6720   20.6260 C   0  0  0  0  0  0  0  0  0  0  0  0
   51.7600   53.5850   19.5940 C   0  0  0  0  0  0  0  0  0  0  0  0
   51.9230   53.2090   18.2950 O   0  0  0  0  0  0  0  0  0  0  0  0
   52.6370   51.9900   18.0650 C   0  0  0  0  0  0  0  0  0  0  0  0
   52.0890   50.9240   19.0210 C   0  0  0  0  0  0  0  0  0  0  0  0
   52.2850   51.3830   20.3640 O   0  0  0  0  0  0  0  0  0  0  0  0
   51.4120   54.8960   19.8840 C   0  0  0  0  0  0  0  0  0  0  0  0
   48.8950   58.2190   21.8590 C   0  0  0  0  0  0  0  0  0  0  0  0
   49.3840   56.9370   21.1800 C   0  0  0  0  0  0  0  0  0  0  0  0
   51.0830   56.9730   22.8980 O   0  0  0  0  0  0  0  0  0  0  0  0
   50.7800   56.2300   23.6500 H   0  0  0  0  0  0  0  0  0  0  0  0
   51.7180   57.6680   20.6730 C   0  0  0  0  0  0  0  0  0  0  0  0
   52.7560   58.2680   21.5230 N   0  0  0  0  0  0  0  0  0  0  0  0
   52.6090   57.9460   22.5640 H   0  0  0  0  0  0  0  0  0  0  0  0
   52.6880   59.3650   21.4650 H   0  0  0  0  0  0  0  0  0  0  0  0
   54.0970   57.8550   21.0860 C   0  0  0  0  0  0  0  0  0  0  0  0
  1 16  1  6  0  0  0
  1 14  1  0  0  0  0
  2  1  1  0  0  0  0
  2  3  2  0  0  0  0
  4  3  1  0  0  0  0
  5  4  2  0  0  0  0
  6 11  2  0  0  0  0
  6  5  1  0  0  0  0
  7  6  1  0  0  0  0
  8  7  1  0  0  0  0
  8  9  1  0  0  0  0
  9 10  1  0  0  0  0
 10  5  1  0  0  0  0
 11  2  1  0  0  0  0
 13  1  1  0  0  0  0
 13 12  1  0  0  0  0
 14 15  1  0  0  0  0
 16 17  1  0  0  0  0
 17 18  1  0  0  0  0
 19 17  1  0  0  0  0
 20 17  1  0  0  0  0
M  END
>  <MODEL>
2

>  <REMARK>
  Name = ZINC33466044
                            x       y       z     vdW  Elec       q    Type
                         _______ _______ _______ _____ _____    ______ ____

>  <TORSDO>
F 5

>  <minimizedAffinity>
-6.8537009595467522

$$$$
ZINC33466044
 OpenBabel10211215253D

 20 21  0  0  1  0  0  0  0  0999 V2000
   50.3110   50.5120   18.6530 C   0  0  1  0  0  0  0  0  0  0  0  0
   48.8970   50.1600   18.2690 C   0  0  0  0  0  0  0  0  0  0  0  0
   48.2000   50.9690   17.3910 C   0  0  0  0  0  0  0  0  0  0  0  0
   46.9010   50.6520   17.0390 C   0  0  0  0  0  0  0  0  0  0  0  0
   46.2970   49.5170   17.5610 C   0  0  0  0  0  0  0  0  0  0  0  0
   46.9990   48.7040   18.4420 C   0  0  0  0  0  0  0  0  0  0  0  0
   46.4250   47.5860   18.9650 O   0  0  0  0  0  0  0  0  0  0  0  0
   44.9990   47.4980   18.8840 C   0  0  0  0  0  0  0  0  0  0  0  0
   44.5740   47.8810   17.4600 C   0  0  0  0  0  0  0  0  0  0  0  0
   45.0170   49.2200   17.2060 O   0  0  0  0  0  0  0  0  0  0  0  0
   48.3000   49.0300   18.7940 C   0  0  0  0  0  0  0  0  0  0  0  0
   52.2080   49.5360   19.9540 C   0  0  0  0  0  0  0  0  0  0  0  0
   50.6950   49.7650   19.9310 C   0  0  0  0  0  0  0  0  0  0  0  0
   51.1980   50.1370   17.5970 O   0  0  0  0  0  0  0  0  0  0  0  0
   51.1120   50.6130   16.6090 H   0  0  0  0  0  0  0  0  0  0  0  0
   50.4140   52.0190   18.8920 C   0  0  0  0  0  0  0  0  0  0  0  0
   51.4970   52.5740   18.0680 N   0  0  0  0  0  0  0  0  0  0  0  0
   51.0960   53.3710   17.4250 H   0  0  0  0  0  0  0  0  0  0  0  0
   51.9240   51.7780   17.4410 H   0  0  0  0  0  0  0  0  0  0  0  0
   52.5630   53.1370   18.9080 C   0  0  0  0  0  0  0  0  0  0  0  0
  1 14  1  6  0  0  0
  1 16  1  0  0  0  0
  1 13  1  0  0  0  0
  2  1  1  0  0  0  0
  2 11  2  0  0  0  0
  3  2  1  0  0  0  0
  4  3  2  0  0  0  0
  4  5  1  0  0  0  0
  5  6  2  0  0  0  0
  6 11  1  0  0  0  0
  6  7  1  0  0  0  0
  8  7  1  0  0  0  0
  9  8  1  0  0  0  0
 10  9  1  0  0  0  0
 10  5  1  0  0  0  0
 13 12  1  0  0  0  0
 15 14  1  0  0  0  0
 17 16  1  0  0  0  0
 17 20  1  0  0  0  0
 18 17  1  0  0  0  0
 19 17  1  0  0  0  0
M  END
>  <MODEL>
3

>  <REMARK>
  Name = ZINC33466044
                            x       y       z     vdW  Elec       q    Type
                         _______ _______ _______ _____ _____    ______ ____

>  <TORSDO>
F 5

>  <minimizedAffinity>
-6.5804505834038522

$$$$
ZINC33466044
 OpenBabel10211215253D

 20 21  0  0  1  0  0  0  0  0999 V2000
   45.7660   47.8720   16.9580 C   0  0  1  0  0  0  0  0  0  0  0  0
   46.8540   48.8260   17.3790 C   0  0  0  0  0  0  0  0  0  0  0  0
   46.8900   50.1040   16.8520 C   0  0  0  0  0  0  0  0  0  0  0  0
   47.8880   50.9820   17.2320 C   0  0  0  0  0  0  0  0  0  0  0  0
   48.8520   50.5850   18.1490 C   0  0  0  0  0  0  0  0  0  0  0  0
   48.8120   49.3010   18.6790 C   0  0  0  0  0  0  0  0  0  0  0  0
   49.7470   48.8910   19.5800 O   0  0  0  0  0  0  0  0  0  0  0  0
   50.9470   49.6670   19.6590 C   0  0  0  0  0  0  0  0  0  0  0  0
   50.5580   51.1500   19.7060 C   0  0  0  0  0  0  0  0  0  0  0  0
   49.8290   51.4600   18.5120 O   0  0  0  0  0  0  0  0  0  0  0  0
   47.8110   48.4240   18.2900 C   0  0  0  0  0  0  0  0  0  0  0  0
   45.2780   46.9440   14.6900 C   0  0  0  0  0  0  0  0  0  0  0  0
   45.3060   48.2160   15.5400 C   0  0  0  0  0  0  0  0  0  0  0  0
   46.2710   46.5350   16.9840 O   0  0  0  0  0  0  0  0  0  0  0  0
   45.9170   45.7980   16.2480 H   0  0  0  0  0  0  0  0  0  0  0  0
   44.5840   47.9880   17.9210 C   0  0  0  0  0  0  0  0  0  0  0  0
   44.3690   46.6990   18.5920 N   0  0  0  0  0  0  0  0  0  0  0  0
   45.1670   45.9980   18.3040 H   0  0  0  0  0  0  0  0  0  0  0  0
   43.3940   46.2880   18.2920 H   0  0  0  0  0  0  0  0  0  0  0  0
   44.3850   46.8570   20.0530 C   0  0  0  0  0  0  0  0  0  0  0  0
  1 13  1  6  0  0  0
  1 14  1  0  0  0  0
  1  2  1  0  0  0  0
  1 16  1  0  0  0  0
  2 11  2  0  0  0  0
  3  4  2  0  0  0  0
  3  2  1  0  0  0  0
  4  5  1  0  0  0  0
  5 10  1  0  0  0  0
  5  6  2  0  0  0  0
  6  7  1  0  0  0  0
  7  8  1  0  0  0  0
  8  9  1  0  0  0  0
 10  9  1  0  0  0  0
 11  6  1  0  0  0  0
 12 13  1  0  0  0  0
 15 14  1  0  0  0  0
 16 17  1  0  0  0  0
 17 20  1  0  0  0  0
 18 17  1  0  0  0  0
 19 17  1  0  0  0  0
M  END
>  <MODEL>
4

>  <REMARK>
  Name = ZINC33466044
                            x       y       z     vdW  Elec       q    Type
                         _______ _______ _______ _____ _____    ______ ____

>  <TORSDO>
F 5

>  <minimizedAffinity>
-6.4734371471029046

$$$$
ZINC33466044
 OpenBabel10211215253D

 20 21  0  0  1  0  0  0  0  0999 V2000
   48.5960   50.2930   16.8330 C   0  0  1  0  0  0  0  0  0  0  0  0
   47.3220   49.5390   16.5520 C   0  0  0  0  0  0  0  0  0  0  0  0
   46.3000   49.5420   17.4840 C   0  0  0  0  0  0  0  0  0  0  0  0
   45.1310   48.8490   17.2330 C   0  0  0  0  0  0  0  0  0  0  0  0
   44.9770   48.1540   16.0420 C   0  0  0  0  0  0  0  0  0  0  0  0
   46.0030   48.1530   15.1050 C   0  0  0  0  0  0  0  0  0  0  0  0
   45.8730   47.4790   13.9300 O   0  0  0  0  0  0  0  0  0  0  0  0
   44.8400   46.4900   13.8680 C   0  0  0  0  0  0  0  0  0  0  0  0
   43.5580   47.0970   14.4530 C   0  0  0  0  0  0  0  0  0  0  0  0
   43.8210   47.4750   15.8100 O   0  0  0  0  0  0  0  0  0  0  0  0
   47.1760   48.8480   15.3650 C   0  0  0  0  0  0  0  0  0  0  0  0
   47.9530   52.6990   16.6330 C   0  0  0  0  0  0  0  0  0  0  0  0
   48.2740   51.5680   17.6130 C   0  0  0  0  0  0  0  0  0  0  0  0
   49.4740   49.4710   17.6050 O   0  0  0  0  0  0  0  0  0  0  0  0
   50.5580   49.4970   17.4200 H   0  0  0  0  0  0  0  0  0  0  0  0
   49.2740   50.6600   15.5120 C   0  0  0  0  0  0  0  0  0  0  0  0
   50.6570   50.1640   15.5150 N   0  0  0  0  0  0  0  0  0  0  0  0
   50.8010   49.4880   16.3700 H   0  0  0  0  0  0  0  0  0  0  0  0
   51.3500   51.0140   15.5990 H   0  0  0  0  0  0  0  0  0  0  0  0
   50.9560   49.4320   14.2780 C   0  0  0  0  0  0  0  0  0  0  0  0
  1 16  1  6  0  0  0
  1 14  1  0  0  0  0
  1 13  1  0  0  0  0
  2  1  1  0  0  0  0
  2  3  2  0  0  0  0
  4  3  1  0  0  0  0
  5  4  2  0  0  0  0
  6 11  2  0  0  0  0
  6  5  1  0  0  0  0
  7  6  1  0  0  0  0
  8  7  1  0  0  0  0
  8  9  1  0  0  0  0
  9 10  1  0  0  0  0
 10  5  1  0  0  0  0
 11  2  1  0  0  0  0
 12 13  1  0  0  0  0
 15 14  1  0  0  0  0
 16 17  1  0  0  0  0
 17 19  1  0  0  0  0
 17 18  1  0  0  0  0
 20 17  1  0  0  0  0
M  END
>  <MODEL>
5

>  <REMARK>
  Name = ZINC33466044
                            x       y       z     vdW  Elec       q    Type
                         _______ _______ _______ _____ _____    ______ ____

>  <TORSDO>
F 5

>  <minimizedAffinity>
-6.4302794180120451

$$$$
ZINC33466044
 OpenBabel10211215253D

 20 21  0  0  1  0  0  0  0  0999 V2000
   46.8590   48.9130   17.7360 C   0  0  1  0  0  0  0  0  0  0  0  0
   48.1310   49.6550   18.0580 C   0  0  0  0  0  0  0  0  0  0  0  0
   48.3180   50.9390   17.5800 C   0  0  0  0  0  0  0  0  0  0  0  0
   49.4840   51.6230   17.8680 C   0  0  0  0  0  0  0  0  0  0  0  0
   50.4670   51.0240   18.6440 C   0  0  0  0  0  0  0  0  0  0  0  0
   50.2770   49.7350   19.1250 C   0  0  0  0  0  0  0  0  0  0  0  0
   51.2280   49.1300   19.8880 O   0  0  0  0  0  0  0  0  0  0  0  0
   52.5410   49.6990   19.8500 C   0  0  0  0  0  0  0  0  0  0  0  0
   52.4100   51.2200   20.0010 C   0  0  0  0  0  0  0  0  0  0  0  0
   51.6100   51.7100   18.9180 O   0  0  0  0  0  0  0  0  0  0  0  0
   49.1060   49.0530   18.8280 C   0  0  0  0  0  0  0  0  0  0  0  0
   45.0360   47.5100   18.7100 C   0  0  0  0  0  0  0  0  0  0  0  0
   46.4410   48.0700   18.9420 C   0  0  0  0  0  0  0  0  0  0  0  0
   45.8260   49.8510   17.4280 O   0  0  0  0  0  0  0  0  0  0  0  0
   46.0540   50.7460   16.8310 H   0  0  0  0  0  0  0  0  0  0  0  0
   47.0930   47.9990   16.5320 C   0  0  0  0  0  0  0  0  0  0  0  0
   46.5310   48.6240   15.3260 N   0  0  0  0  0  0  0  0  0  0  0  0
   45.9270   49.4970   15.6130 H   0  0  0  0  0  0  0  0  0  0  0  0
   45.8960   47.8960   14.7990 H   0  0  0  0  0  0  0  0  0  0  0  0
   47.5970   49.0660   14.4170 C   0  0  0  0  0  0  0  0  0  0  0  0
  1 16  1  6  0  0  0
  1  2  1  0  0  0  0
  1 13  1  0  0  0  0
  2 11  2  0  0  0  0
  3  4  2  0  0  0  0
  3  2  1  0  0  0  0
  4  5  1  0  0  0  0
  5 10  1  0  0  0  0
  5  6  2  0  0  0  0
  6  7  1  0  0  0  0
  8  7  1  0  0  0  0
  8  9  1  0  0  0  0
 10  9  1  0  0  0  0
 11  6  1  0  0  0  0
 12 13  1  0  0  0  0
 14  1  1  0  0  0  0
 15 14  1  0  0  0  0
 17 18  1  0  0  0  0
 17 16  1  0  0  0  0
 19 17  1  0  0  0  0
 20 17  1  0  0  0  0
M  END
>  <MODEL>
6

>  <REMARK>
  Name = ZINC33466044
                            x       y       z     vdW  Elec       q    Type
                         _______ _______ _______ _____ _____    ______ ____

>  <TORSDO>
F 5

>  <minimizedAffinity>
-6.3092992609021268

$$$$
ZINC33466044
 OpenBabel10211215253D

 20 21  0  0  1  0  0  0  0  0999 V2000
   48.7150   49.7240   17.4940 C   0  0  1  0  0  0  0  0  0  0  0  0
   47.4190   49.1860   16.9450 C   0  0  0  0  0  0  0  0  0  0  0  0
   46.2720   49.2350   17.7160 C   0  0  0  0  0  0  0  0  0  0  0  0
   45.0810   48.7390   17.2190 C   0  0  0  0  0  0  0  0  0  0  0  0
   45.0330   48.1960   15.9430 C   0  0  0  0  0  0  0  0  0  0  0  0
   46.1860   48.1490   15.1690 C   0  0  0  0  0  0  0  0  0  0  0  0
   46.1600   47.6220   13.9140 O   0  0  0  0  0  0  0  0  0  0  0  0
   45.0380   46.7960   13.5860 C   0  0  0  0  0  0  0  0  0  0  0  0
   43.7630   47.5120   14.0520 C   0  0  0  0  0  0  0  0  0  0  0  0
   43.8540   47.7110   15.4680 O   0  0  0  0  0  0  0  0  0  0  0  0
   47.3780   48.6450   15.6750 C   0  0  0  0  0  0  0  0  0  0  0  0
   50.2840   49.6760   19.4380 C   0  0  0  0  0  0  0  0  0  0  0  0
   48.9990   49.0840   18.8540 C   0  0  0  0  0  0  0  0  0  0  0  0
   49.7780   49.4150   16.5900 O   0  0  0  0  0  0  0  0  0  0  0  0
   49.9720   50.0640   15.7240 H   0  0  0  0  0  0  0  0  0  0  0  0
   48.6100   51.2410   17.6560 C   0  0  0  0  0  0  0  0  0  0  0  0
   48.5600   51.8740   16.3300 N   0  0  0  0  0  0  0  0  0  0  0  0
   48.1200   51.1720   15.6060 H   0  0  0  0  0  0  0  0  0  0  0  0
   49.5790   52.1380   16.0130 H   0  0  0  0  0  0  0  0  0  0  0  0
   47.7430   53.0940   16.3600 C   0  0  0  0  0  0  0  0  0  0  0  0
  1 14  1  6  0  0  0
  1 16  1  0  0  0  0
  1 13  1  0  0  0  0
  2  1  1  0  0  0  0
  2  3  2  0  0  0  0
  4  3  1  0  0  0  0
  5  4  2  0  0  0  0
  6 11  2  0  0  0  0
  6  5  1  0  0  0  0
  7  6  1  0  0  0  0
  8  7  1  0  0  0  0
  8  9  1  0  0  0  0
  9 10  1  0  0  0  0
 10  5  1  0  0  0  0
 11  2  1  0  0  0  0
 13 12  1  0  0  0  0
 15 14  1  0  0  0  0
 17 20  1  0  0  0  0
 17 16  1  0  0  0  0
 18 17  1  0  0  0  0
 19 17  1  0  0  0  0
M  END
>  <MODEL>
7

>  <REMARK>
  Name = ZINC33466044
                            x       y       z     vdW  Elec       q    Type
                         _______ _______ _______ _____ _____    ______ ____

>  <TORSDO>
F 5

>  <minimizedAffinity>
-6.2305044019409577

$$$$
ZINC33466044
 OpenBabel10211215253D

 20 21  0  0  1  0  0  0  0  0999 V2000
   50.5670   55.8650   20.7350 C   0  0  1  0  0  0  0  0  0  0  0  0
   50.7740   54.3740   20.7970 C   0  0  0  0  0  0  0  0  0  0  0  0
   51.4780   53.8200   21.8500 C   0  0  0  0  0  0  0  0  0  0  0  0
   51.6750   52.4530   21.9090 C   0  0  0  0  0  0  0  0  0  0  0  0
   51.1590   51.6330   20.9160 C   0  0  0  0  0  0  0  0  0  0  0  0
   50.4490   52.1900   19.8600 C   0  0  0  0  0  0  0  0  0  0  0  0
   49.9340   51.4040   18.8750 O   0  0  0  0  0  0  0  0  0  0  0  0
   50.4650   50.0790   18.7670 C   0  0  0  0  0  0  0  0  0  0  0  0
   50.5180   49.4670   20.1730 C   0  0  0  0  0  0  0  0  0  0  0  0
   51.3610   50.2890   20.9870 O   0  0  0  0  0  0  0  0  0  0  0  0
   50.2590   53.5630   19.8040 C   0  0  0  0  0  0  0  0  0  0  0  0
   52.2200   57.3760   21.8430 C   0  0  0  0  0  0  0  0  0  0  0  0
   50.9880   56.4960   22.0630 C   0  0  0  0  0  0  0  0  0  0  0  0
   51.3580   56.4110   19.6770 O   0  0  0  0  0  0  0  0  0  0  0  0
   51.3820   57.4980   19.5110 H   0  0  0  0  0  0  0  0  0  0  0  0
   49.0900   56.1650   20.4730 C   0  0  0  0  0  0  0  0  0  0  0  0
   48.6790   57.3350   21.2620 N   0  0  0  0  0  0  0  0  0  0  0  0
   49.5230   58.0360   21.3440 H   0  0  0  0  0  0  0  0  0  0  0  0
   48.3740   57.0090   22.2680 H   0  0  0  0  0  0  0  0  0  0  0  0
   47.5500   58.0280   20.6280 C   0  0  0  0  0  0  0  0  0  0  0  0
  1 14  1  6  0  0  0
  1  2  1  0  0  0  0
  1 13  1  0  0  0  0
  2  3  2  0  0  0  0
  3  4  1  0  0  0  0
  5 10  1  0  0  0  0
  5  4  2  0  0  0  0
  6  5  1  0  0  0  0
  7  6  1  0  0  0  0
  8  7  1  0  0  0  0
  8  9  1  0  0  0  0
  9 10  1  0  0  0  0
 11  6  2  0  0  0  0
 11  2  1  0  0  0  0
 12 13  1  0  0  0  0
 15 14  1  0  0  0  0
 16  1  1  0  0  0  0
 16 17  1  0  0  0  0
 17 18  1  0  0  0  0
 17 19  1  0  0  0  0
 20 17  1  0  0  0  0
M  END
>  <MODEL>
8

>  <REMARK>
  Name = ZINC33466044
                            x       y       z     vdW  Elec       q    Type
                         _______ _______ _______ _____ _____    ______ ____

>  <TORSDO>
F 5

>  <minimizedAffinity>
-6.026574767451744

$$$$
ZINC33466044
 OpenBabel10211215253D

 20 21  0  0  1  0  0  0  0  0999 V2000
   50.3210   52.0510   18.7100 C   0  0  1  0  0  0  0  0  0  0  0  0
   50.8360   53.0890   19.6740 C   0  0  0  0  0  0  0  0  0  0  0  0
   51.0770   52.7450   20.9910 C   0  0  0  0  0  0  0  0  0  0  0  0
   51.5450   53.6950   21.8800 C   0  0  0  0  0  0  0  0  0  0  0  0
   51.7800   54.9930   21.4510 C   0  0  0  0  0  0  0  0  0  0  0  0
   51.5400   55.3360   20.1260 C   0  0  0  0  0  0  0  0  0  0  0  0
   51.7650   56.6040   19.6830 O   0  0  0  0  0  0  0  0  0  0  0  0
   51.8800   57.6220   20.6830 C   0  0  0  0  0  0  0  0  0  0  0  0
   52.8120   57.1090   21.7870 C   0  0  0  0  0  0  0  0  0  0  0  0
   52.2400   55.9170   22.3380 O   0  0  0  0  0  0  0  0  0  0  0  0
   51.0660   54.3800   19.2400 C   0  0  0  0  0  0  0  0  0  0  0  0
   48.8240   52.2680   16.7210 C   0  0  0  0  0  0  0  0  0  0  0  0
   48.9190   52.4420   18.2380 C   0  0  0  0  0  0  0  0  0  0  0  0
   51.1980   51.9720   17.5840 O   0  0  0  0  0  0  0  0  0  0  0  0
   52.1580   52.5080   17.5950 H   0  0  0  0  0  0  0  0  0  0  0  0
   50.2630   50.6910   19.4070 C   0  0  0  0  0  0  0  0  0  0  0  0
   50.3490   49.6210   18.4030 N   0  0  0  0  0  0  0  0  0  0  0  0
   51.2330   48.9990   18.6050 H   0  0  0  0  0  0  0  0  0  0  0  0
   50.4340   50.0660   17.4010 H   0  0  0  0  0  0  0  0  0  0  0  0
   49.1540   48.7670   18.4410 C   0  0  0  0  0  0  0  0  0  0  0  0
  1 14  1  6  0  0  0
  1 16  1  0  0  0  0
  1  2  1  0  0  0  0
  2  3  1  0  0  0  0
  3  4  2  0  0  0  0
  5  4  1  0  0  0  0
  5 10  1  0  0  0  0
  6  5  2  0  0  0  0
  7  6  1  0  0  0  0
  7  8  1  0  0  0  0
  8  9  1  0  0  0  0
  9 10  1  0  0  0  0
 11  2  2  0  0  0  0
 11  6  1  0  0  0  0
 12 13  1  0  0  0  0
 13  1  1  0  0  0  0
 14 15  1  0  0  0  0
 17 20  1  0  0  0  0
 17 18  1  0  0  0  0
 17 16  1  0  0  0  0
 19 17  1  0  0  0  0
M  END
>  <MODEL>
9

>  <REMARK>
  Name = ZINC33466044
                            x       y       z     vdW  Elec       q    Type
                         _______ _______ _______ _____ _____    ______ ____

>  <TORSDO>
F 5

>  <minimizedAffinity>
-6.0003946743226253

$$$$
ZINC54179981
 OpenBabel10211215263D

 21 22  0  0  1  0  0  0  0  0999 V2000
   49.9300   53.6120   19.6470 C   0  0  1  0  0  0  0  0  0  0  0  0
   50.4020   53.0880   18.2710 C   0  0  0  0  0  0  0  0  0  0  0  0
   51.0370   51.7110   18.6370 C   0  0  2  0  0  0  0  0  0  0  0  0
   49.8750   50.7400   18.8610 C   0  0  0  0  0  0  0  0  0  0  0  0
   50.3490   49.4980   19.6140 C   0  0  0  0  0  0  0  0  0  0  0  0
   50.8710   49.9280   20.9900 C   0  0  0  0  0  0  0  0  0  0  0  0
   52.0770   50.8440   20.7870 C   0  0  0  0  0  0  0  0  0  0  0  0
   51.7200   52.0740   19.9710 C   0  0  2  0  0  0  0  0  0  0  0  0
   50.7590   52.9400   20.6730 N   0  0  0  0  0  0  0  0  0  0  0  0
   50.1720   52.3830   21.2760 H   0  0  0  0  0  0  0  0  0  0  0  0
   51.2540   53.6300   21.2170 H   0  0  0  0  0  0  0  0  0  0  0  0
   49.7000   55.7830   20.8090 N   0  0  0  0  0  0  0  0  0  0  0  0
   49.2720   55.3100   21.5400 H   0  0  0  0  0  0  0  0  0  0  0  0
   50.1230   55.1040   19.7240 C   0  0  0  0  0  0  0  0  0  0  0  0
   50.6580   55.6950   18.8100 O   0  0  0  0  0  0  0  0  0  0  0  0
   49.8860   57.2340   20.8840 C   0  0  1  0  0  0  0  0  0  0  0  0
   47.4680   57.6850   20.4470 C   0  0  0  0  0  0  0  0  0  0  0  0
   48.6160   57.8840   21.4380 C   0  0  0  0  0  0  0  0  0  0  0  0
   51.0650   57.5500   21.8070 C   0  0  0  0  0  0  0  0  0  0  0  0
   51.5630   56.3040   22.4120 C   0  0  0  0  0  0  0  0  0  0  0  0
   51.9470   55.3430   22.8790 N   0  0  0  0  0  0  0  0  0  0  0  0
  1 14  1  6  0  0  0
  1  9  1  0  0  0  0
  2  1  1  0  0  0  0
  3  2  1  1  0  0  0
  3  4  1  0  0  0  0
  3  8  1  0  0  0  0
  4  5  1  0  0  0  0
  5  6  1  0  0  0  0
  7  6  1  0  0  0  0
  8  9  1  1  0  0  0
  8  7  1  0  0  0  0
  9 11  1  0  0  0  0
  9 10  1  0  0  0  0
 12 13  1  0  0  0  0
 14 12  1  0  0  0  0
 15 14  2  0  0  0  0
 16 12  1  1  0  0  0
 16 18  1  0  0  0  0
 16 19  1  0  0  0  0
 17 18  1  0  0  0  0
 19 20  1  0  0  0  0
 20 21  3  0  0  0  0
M  END
>  <MODEL>
1

>  <REMARK>
  Name = ZINC54179981
                            x       y       z     vdW  Elec       q    Type
                         _______ _______ _______ _____ _____    ______ ____

>  <TORSDO>
F 5

>  <minimizedAffinity>
-6.7162282479723263

$$$$
ZINC54179981
 OpenBabel10211215263D

 21 22  0  0  1  0  0  0  0  0999 V2000
   48.7630   54.0570   18.8680 C   0  0  1  0  0  0  0  0  0  0  0  0
   48.4780   54.2490   17.3610 C   0  0  0  0  0  0  0  0  0  0  0  0
   48.5910   52.7940   16.8110 C   0  0  2  0  0  0  0  0  0  0  0  0
   47.2940   52.0790   17.1950 C   0  0  0  0  0  0  0  0  0  0  0  0
   47.4590   50.5650   17.0790 C   0  0  0  0  0  0  0  0  0  0  0  0
   48.5500   50.1130   18.0560 C   0  0  0  0  0  0  0  0  0  0  0  0
   49.8700   50.7630   17.6450 C   0  0  0  0  0  0  0  0  0  0  0  0
   49.7780   52.2790   17.6500 C   0  0  2  0  0  0  0  0  0  0  0  0
   49.5520   52.8120   19.0040 N   0  0  0  0  0  0  0  0  0  0  0  0
   49.0400   52.1410   19.5560 H   0  0  0  0  0  0  0  0  0  0  0  0
   50.4370   53.0150   19.4440 H   0  0  0  0  0  0  0  0  0  0  0  0
   49.1770   55.8290   20.5440 N   0  0  0  0  0  0  0  0  0  0  0  0
   48.4000   55.5080   21.0280 H   0  0  0  0  0  0  0  0  0  0  0  0
   49.5510   55.2270   19.3970 C   0  0  0  0  0  0  0  0  0  0  0  0
   50.5230   55.6280   18.7910 O   0  0  0  0  0  0  0  0  0  0  0  0
   49.9430   56.9670   21.0580 C   0  0  1  0  0  0  0  0  0  0  0  0
   47.6850   58.0100   20.8160 C   0  0  0  0  0  0  0  0  0  0  0  0
   48.9830   58.0130   21.6270 C   0  0  0  0  0  0  0  0  0  0  0  0
   50.8900   56.4890   22.1600 C   0  0  0  0  0  0  0  0  0  0  0  0
   52.2820   56.7540   21.7610 C   0  0  0  0  0  0  0  0  0  0  0  0
   53.3550   56.9580   21.4540 N   0  0  0  0  0  0  0  0  0  0  0  0
  1  9  1  0  0  0  0
  1 14  1  6  0  0  0
  2  1  1  0  0  0  0
  3  4  1  1  0  0  0
  3  2  1  0  0  0  0
  3  8  1  0  0  0  0
  5  4  1  0  0  0  0
  5  6  1  0  0  0  0
  7  6  1  0  0  0  0
  8  7  1  1  0  0  0
  8  9  1  0  0  0  0
  9 11  1  0  0  0  0
  9 10  1  0  0  0  0
 12 13  1  0  0  0  0
 14 12  1  0  0  0  0
 15 14  2  0  0  0  0
 16 12  1  1  0  0  0
 16 18  1  0  0  0  0
 16 19  1  0  0  0  0
 17 18  1  0  0  0  0
 20 19  1  0  0  0  0
 21 20  3  0  0  0  0
M  END
>  <MODEL>
2

>  <REMARK>
  Name = ZINC54179981
                            x       y       z     vdW  Elec       q    Type
                         _______ _______ _______ _____ _____    ______ ____

>  <TORSDO>
F 5

>  <minimizedAffinity>
-6.6323584685194952

$$$$
ZINC54179981
 OpenBabel10211215263D

 21 22  0  0  1  0  0  0  0  0999 V2000
   49.9280   54.5480   19.7920 C   0  0  1  0  0  0  0  0  0  0  0  0
   51.0480   55.6090   19.9010 C   0  0  0  0  0  0  0  0  0  0  0  0
   50.2400   56.9410   19.9800 C   0  0  2  0  0  0  0  0  0  0  0  0
   49.6970   57.0390   21.4080 C   0  0  0  0  0  0  0  0  0  0  0  0
   48.5700   58.0670   21.4850 C   0  0  0  0  0  0  0  0  0  0  0  0
   47.4220   57.6070   20.5790 C   0  0  0  0  0  0  0  0  0  0  0  0
   47.9260   57.5710   19.1370 C   0  0  0  0  0  0  0  0  0  0  0  0
   49.1090   56.6310   18.9780 C   0  0  2  0  0  0  0  0  0  0  0  0
   48.7380   55.2300   19.2360 N   0  0  0  0  0  0  0  0  0  0  0  0
   47.9810   55.1930   19.9010 H   0  0  0  0  0  0  0  0  0  0  0  0
   48.4610   54.7850   18.3740 H   0  0  0  0  0  0  0  0  0  0  0  0
   49.5220   52.4120   18.6130 N   0  0  0  0  0  0  0  0  0  0  0  0
   48.6410   52.3930   19.0170 H   0  0  0  0  0  0  0  0  0  0  0  0
   50.3600   53.4340   18.8730 C   0  0  0  0  0  0  0  0  0  0  0  0
   51.4630   53.4580   18.3680 O   0  0  0  0  0  0  0  0  0  0  0  0
   49.9430   51.3280   17.7200 C   0  0  1  0  0  0  0  0  0  0  0  0
   48.4840   49.4080   18.3750 C   0  0  0  0  0  0  0  0  0  0  0  0
   49.8930   49.9980   18.4740 C   0  0  0  0  0  0  0  0  0  0  0  0
   49.0040   51.2680   16.5140 C   0  0  0  0  0  0  0  0  0  0  0  0
   48.2440   52.5250   16.4190 C   0  0  0  0  0  0  0  0  0  0  0  0
   47.6580   53.4950   16.3470 N   0  0  0  0  0  0  0  0  0  0  0  0
  1 14  1  6  0  0  0
  1  2  1  0  0  0  0
  3  2  1  1  0  0  0
  3  4  1  0  0  0  0
  4  5  1  0  0  0  0
  6  5  1  0  0  0  0
  7  6  1  0  0  0  0
  8  7  1  1  0  0  0
  8  9  1  0  0  0  0
  8  3  1  0  0  0  0
  9  1  1  0  0  0  0
  9 10  1  0  0  0  0
 11  9  1  0  0  0  0
 12 14  1  0  0  0  0
 12 13  1  0  0  0  0
 15 14  2  0  0  0  0
 16 19  1  1  0  0  0
 16 18  1  0  0  0  0
 16 12  1  0  0  0  0
 17 18  1  0  0  0  0
 20 19  1  0  0  0  0
 21 20  3  0  0  0  0
M  END
>  <MODEL>
3

>  <REMARK>
  Name = ZINC54179981
                            x       y       z     vdW  Elec       q    Type
                         _______ _______ _______ _____ _____    ______ ____

>  <TORSDO>
F 5

>  <minimizedAffinity>
-6.5919836273672656

$$$$
ZINC54179981
 OpenBabel10211215263D

 21 22  0  0  1  0  0  0  0  0999 V2000
   50.5560   54.0480   21.4210 C   0  0  1  0  0  0  0  0  0  0  0  0
   51.6360   55.1430   21.2570 C   0  0  0  0  0  0  0  0  0  0  0  0
   50.8330   56.3080   20.5990 C   0  0  2  0  0  0  0  0  0  0  0  0
   50.0160   56.9630   21.7160 C   0  0  0  0  0  0  0  0  0  0  0  0
   48.9000   57.8260   21.1310 C   0  0  0  0  0  0  0  0  0  0  0  0
   47.9550   56.9280   20.3250 C   0  0  0  0  0  0  0  0  0  0  0  0
   48.7370   56.3200   19.1620 C   0  0  0  0  0  0  0  0  0  0  0  0
   49.9240   55.5060   19.6460 C   0  0  2  0  0  0  0  0  0  0  0  0
   49.5040   54.3240   20.4170 N   0  0  0  0  0  0  0  0  0  0  0  0
   48.6290   54.5130   20.8820 H   0  0  0  0  0  0  0  0  0  0  0  0
   49.4020   53.5320   19.8020 H   0  0  0  0  0  0  0  0  0  0  0  0
   50.7590   51.9560   20.1180 N   0  0  0  0  0  0  0  0  0  0  0  0
   50.0830   52.3030   19.5150 H   0  0  0  0  0  0  0  0  0  0  0  0
   51.1590   52.6890   21.1750 C   0  0  0  0  0  0  0  0  0  0  0  0
   52.0040   52.2550   21.9300 O   0  0  0  0  0  0  0  0  0  0  0  0
   51.3440   50.6340   19.8790 C   0  0  1  0  0  0  0  0  0  0  0  0
   49.4000   49.5930   18.7040 C   0  0  0  0  0  0  0  0  0  0  0  0
   50.2510   49.5680   19.9750 C   0  0  0  0  0  0  0  0  0  0  0  0
   51.9720   50.5980   18.4850 C   0  0  0  0  0  0  0  0  0  0  0  0
   52.6230   51.8880   18.2060 C   0  0  0  0  0  0  0  0  0  0  0  0
   53.1250   52.8840   17.9900 N   0  0  0  0  0  0  0  0  0  0  0  0
  1 14  1  6  0  0  0
  2  1  1  0  0  0  0
  3  2  1  1  0  0  0
  3  4  1  0  0  0  0
  5  4  1  0  0  0  0
  6  5  1  0  0  0  0
  7  6  1  0  0  0  0
  8  7  1  1  0  0  0
  8  9  1  0  0  0  0
  8  3  1  0  0  0  0
  9 10  1  0  0  0  0
  9  1  1  0  0  0  0
 11  9  1  0  0  0  0
 12 14  1  0  0  0  0
 13 12  1  0  0  0  0
 14 15  2  0  0  0  0
 16 19  1  6  0  0  0
 16 18  1  0  0  0  0
 16 12  1  0  0  0  0
 17 18  1  0  0  0  0
 20 19  1  0  0  0  0
 21 20  3  0  0  0  0
M  END
>  <MODEL>
4

>  <REMARK>
  Name = ZINC54179981
                            x       y       z     vdW  Elec       q    Type
                         _______ _______ _______ _____ _____    ______ ____

>  <TORSDO>
F 5

>  <minimizedAffinity>
-6.5830210526414152

$$$$
ZINC54179981
 OpenBabel10211215263D

 21 22  0  0  1  0  0  0  0  0999 V2000
   48.6950   50.7090   17.1220 C   0  0  1  0  0  0  0  0  0  0  0  0
   48.8170   49.8410   18.3960 C   0  0  0  0  0  0  0  0  0  0  0  0
   47.6560   48.8150   18.2140 C   0  0  2  0  0  0  0  0  0  0  0  0
   48.1390   47.7840   17.1920 C   0  0  0  0  0  0  0  0  0  0  0  0
   46.9610   46.9870   16.6340 C   0  0  0  0  0  0  0  0  0  0  0  0
   46.0130   47.9510   15.9130 C   0  0  0  0  0  0  0  0  0  0  0  0
   45.4650   48.9470   16.9330 C   0  0  0  0  0  0  0  0  0  0  0  0
   46.5760   49.7340   17.6060 C   0  0  2  0  0  0  0  0  0  0  0  0
   47.2950   50.5960   16.6530 N   0  0  0  0  0  0  0  0  0  0  0  0
   47.2750   50.1810   15.7340 H   0  0  0  0  0  0  0  0  0  0  0  0
   46.8680   51.5090   16.6290 H   0  0  0  0  0  0  0  0  0  0  0  0
   49.8540   52.4380   18.4580 N   0  0  0  0  0  0  0  0  0  0  0  0
   50.2500   51.7230   18.9800 H   0  0  0  0  0  0  0  0  0  0  0  0
   49.0160   52.1450   17.4430 C   0  0  0  0  0  0  0  0  0  0  0  0
   48.5190   53.0390   16.7900 O   0  0  0  0  0  0  0  0  0  0  0  0
   50.1650   53.8350   18.7710 C   0  0  1  0  0  0  0  0  0  0  0  0
   48.4880   55.4180   19.7320 C   0  0  0  0  0  0  0  0  0  0  0  0
   49.4240   54.2490   20.0440 C   0  0  0  0  0  0  0  0  0  0  0  0
   51.6720   53.9860   18.9850 C   0  0  0  0  0  0  0  0  0  0  0  0
   52.3620   52.7850   18.4870 C   0  0  0  0  0  0  0  0  0  0  0  0
   52.8940   51.8590   18.1030 N   0  0  0  0  0  0  0  0  0  0  0  0
  1 14  1  1  0  0  0
  1  2  1  0  0  0  0
  3  4  1  6  0  0  0
  3  2  1  0  0  0  0
  5  4  1  0  0  0  0
  6  5  1  0  0  0  0
  6  7  1  0  0  0  0
  7  8  1  0  0  0  0
  8  9  1  6  0  0  0
  8  3  1  0  0  0  0
  9  1  1  0  0  0  0
 10  9  1  0  0  0  0
 11  9  1  0  0  0  0
 12 13  1  0  0  0  0
 14 12  1  0  0  0  0
 15 14  2  0  0  0  0
 16 12  1  1  0  0  0
 16 19  1  0  0  0  0
 16 18  1  0  0  0  0
 17 18  1  0  0  0  0
 20 19  1  0  0  0  0
 21 20  3  0  0  0  0
M  END
>  <MODEL>
5

>  <REMARK>
  Name = ZINC54179981
                            x       y       z     vdW  Elec       q    Type
                         _______ _______ _______ _____ _____    ______ ____

>  <TORSDO>
F 5

>  <minimizedAffinity>
-6.3985671038867515

$$$$
ZINC54179981
 OpenBabel10211215263D

 21 22  0  0  1  0  0  0  0  0999 V2000
   50.4840   53.1160   20.6620 C   0  0  1  0  0  0  0  0  0  0  0  0
   50.6980   53.1840   19.1320 C   0  0  0  0  0  0  0  0  0  0  0  0
   51.0730   51.7110   18.7810 C   0  0  2  0  0  0  0  0  0  0  0  0
   49.7680   50.9120   18.7910 C   0  0  0  0  0  0  0  0  0  0  0  0
   50.0540   49.4140   18.8700 C   0  0  0  0  0  0  0  0  0  0  0  0
   50.7900   49.1240   20.1830 C   0  0  0  0  0  0  0  0  0  0  0  0
   52.1300   49.8580   20.1620 C   0  0  0  0  0  0  0  0  0  0  0  0
   51.9480   51.3570   20.0010 C   0  0  2  0  0  0  0  0  0  0  0  0
   51.2600   51.9560   21.1560 N   0  0  0  0  0  0  0  0  0  0  0  0
   50.6360   51.2800   21.5710 H   0  0  0  0  0  0  0  0  0  0  0  0
   51.9370   52.2630   21.8370 H   0  0  0  0  0  0  0  0  0  0  0  0
   50.3940   55.5610   21.0250 N   0  0  0  0  0  0  0  0  0  0  0  0
   49.6500   55.5940   20.4040 H   0  0  0  0  0  0  0  0  0  0  0  0
   50.9820   54.3820   21.3090 C   0  0  0  0  0  0  0  0  0  0  0  0
   51.9140   54.3410   22.0850 O   0  0  0  0  0  0  0  0  0  0  0  0
   50.8800   56.7930   21.6530 C   0  0  1  0  0  0  0  0  0  0  0  0
   53.0950   57.9430   21.5350 C   0  0  0  0  0  0  0  0  0  0  0  0
   51.8840   57.4780   20.7240 C   0  0  0  0  0  0  0  0  0  0  0  0
   49.7000   57.7320   21.9130 C   0  0  0  0  0  0  0  0  0  0  0  0
   48.5880   57.3840   21.0140 C   0  0  0  0  0  0  0  0  0  0  0  0
   47.7300   57.1150   20.3210 N   0  0  0  0  0  0  0  0  0  0  0  0
  1  9  1  0  0  0  0
  1 14  1  6  0  0  0
  2  1  1  0  0  0  0
  3  4  1  1  0  0  0
  3  2  1  0  0  0  0
  3  8  1  0  0  0  0
  4  5  1  0  0  0  0
  5  6  1  0  0  0  0
  7  6  1  0  0  0  0
  8  7  1  1  0  0  0
  8  9  1  0  0  0  0
  9 10  1  0  0  0  0
  9 11  1  0  0  0  0
 12 14  1  0  0  0  0
 12 16  1  0  0  0  0
 13 12  1  0  0  0  0
 14 15  2  0  0  0  0
 16 18  1  6  0  0  0
 16 19  1  0  0  0  0
 18 17  1  0  0  0  0
 20 19  1  0  0  0  0
 21 20  3  0  0  0  0
M  END
>  <MODEL>
6

>  <REMARK>
  Name = ZINC54179981
                            x       y       z     vdW  Elec       q    Type
                         _______ _______ _______ _____ _____    ______ ____

>  <TORSDO>
F 5

>  <minimizedAffinity>
-6.3844493974908039

$$$$
ZINC54179981
 OpenBabel10211215263D

 21 22  0  0  1  0  0  0  0  0999 V2000
   50.5170   54.3910   19.2340 C   0  0  1  0  0  0  0  0  0  0  0  0
   50.0820   54.1060   20.6900 C   0  0  0  0  0  0  0  0  0  0  0  0
   50.7470   55.2800   21.4740 C   0  0  2  0  0  0  0  0  0  0  0  0
   49.8860   56.5190   21.2210 C   0  0  0  0  0  0  0  0  0  0  0  0
   50.6500   57.7890   21.5860 C   0  0  0  0  0  0  0  0  0  0  0  0
   51.8900   57.8920   20.6910 C   0  0  0  0  0  0  0  0  0  0  0  0
   52.7980   56.6970   20.9810 C   0  0  0  0  0  0  0  0  0  0  0  0
   52.0920   55.3770   20.7250 C   0  0  2  0  0  0  0  0  0  0  0  0
   51.7540   55.2010   19.3020 N   0  0  0  0  0  0  0  0  0  0  0  0
   51.5990   56.1000   18.8730 H   0  0  0  0  0  0  0  0  0  0  0  0
   52.5040   54.7190   18.8300 H   0  0  0  0  0  0  0  0  0  0  0  0
   49.7940   52.2020   18.3370 N   0  0  0  0  0  0  0  0  0  0  0  0
   48.9050   52.3930   18.6750 H   0  0  0  0  0  0  0  0  0  0  0  0
   50.7870   53.0960   18.5140 C   0  0  0  0  0  0  0  0  0  0  0  0
   51.9000   52.8570   18.0930 O   0  0  0  0  0  0  0  0  0  0  0  0
   50.0570   50.9420   17.6380 C   0  0  1  0  0  0  0  0  0  0  0  0
   50.5500   49.5780   19.6720 C   0  0  0  0  0  0  0  0  0  0  0  0
   49.5850   49.7710   18.5010 C   0  0  0  0  0  0  0  0  0  0  0  0
   49.3050   50.9320   16.3060 C   0  0  0  0  0  0  0  0  0  0  0  0
   48.3430   52.0450   16.2760 C   0  0  0  0  0  0  0  0  0  0  0  0
   47.6010   52.9040   16.2530 N   0  0  0  0  0  0  0  0  0  0  0  0
  1 14  1  1  0  0  0
  1  9  1  0  0  0  0
  1  2  1  0  0  0  0
  3  2  1  6  0  0  0
  4  3  1  0  0  0  0
  4  5  1  0  0  0  0
  6  7  1  0  0  0  0
  6  5  1  0  0  0  0
  8  9  1  6  0  0  0
  8  7  1  0  0  0  0
  8  3  1  0  0  0  0
 10  9  1  0  0  0  0
 11  9  1  0  0  0  0
 12 14  1  0  0  0  0
 12 13  1  0  0  0  0
 15 14  2  0  0  0  0
 16 19  1  1  0  0  0
 16 12  1  0  0  0  0
 16 18  1  0  0  0  0
 18 17  1  0  0  0  0
 20 19  1  0  0  0  0
 21 20  3  0  0  0  0
M  END
>  <MODEL>
7

>  <REMARK>
  Name = ZINC54179981
                            x       y       z     vdW  Elec       q    Type
                         _______ _______ _______ _____ _____    ______ ____

>  <TORSDO>
F 5

>  <minimizedAffinity>
-6.3024806380017626

$$$$
ZINC54179981
 OpenBabel10211215263D

 21 22  0  0  1  0  0  0  0  0999 V2000
   49.2680   48.8010   18.5690 C   0  0  1  0  0  0  0  0  0  0  0  0
   47.7810   48.8300   18.9900 C   0  0  0  0  0  0  0  0  0  0  0  0
   47.0480   48.9670   17.6200 C   0  0  2  0  0  0  0  0  0  0  0  0
   47.0710   47.5810   16.9710 C   0  0  0  0  0  0  0  0  0  0  0  0
   46.7600   47.6800   15.4790 C   0  0  0  0  0  0  0  0  0  0  0  0
   47.8450   48.5290   14.8060 C   0  0  0  0  0  0  0  0  0  0  0  0
   47.7900   49.9400   15.3920 C   0  0  0  0  0  0  0  0  0  0  0  0
   48.0070   49.9340   16.8950 C   0  0  2  0  0  0  0  0  0  0  0  0
   49.3590   49.4770   17.2550 N   0  0  0  0  0  0  0  0  0  0  0  0
   49.6980   48.8280   16.5600 H   0  0  0  0  0  0  0  0  0  0  0  0
   49.9820   50.2680   17.3190 H   0  0  0  0  0  0  0  0  0  0  0  0
   50.3280   50.8570   19.4460 N   0  0  0  0  0  0  0  0  0  0  0  0
   49.9490   51.3360   18.6920 H   0  0  0  0  0  0  0  0  0  0  0  0
   50.1060   49.5350   19.5840 C   0  0  0  0  0  0  0  0  0  0  0  0
   50.5800   48.9360   20.5260 O   0  0  0  0  0  0  0  0  0  0  0  0
   51.1440   51.5700   20.4320 C   0  0  1  0  0  0  0  0  0  0  0  0
   52.5250   52.4790   18.5580 C   0  0  0  0  0  0  0  0  0  0  0  0
   52.5670   51.7350   19.8950 C   0  0  0  0  0  0  0  0  0  0  0  0
   50.5350   52.9490   20.6960 C   0  0  0  0  0  0  0  0  0  0  0  0
   51.2910   53.6240   21.7620 C   0  0  0  0  0  0  0  0  0  0  0  0
   51.8750   54.1450   22.5850 N   0  0  0  0  0  0  0  0  0  0  0  0
  1  2  1  0  0  0  0
  1 14  1  1  0  0  0
  3  4  1  6  0  0  0
  3  2  1  0  0  0  0
  5  4  1  0  0  0  0
  6  7  1  0  0  0  0
  6  5  1  0  0  0  0
  8  7  1  6  0  0  0
  8  9  1  0  0  0  0
  8  3  1  0  0  0  0
  9 11  1  0  0  0  0
  9  1  1  0  0  0  0
 10  9  1  0  0  0  0
 12 14  1  0  0  0  0
 13 12  1  0  0  0  0
 14 15  2  0  0  0  0
 16 12  1  6  0  0  0
 16 19  1  0  0  0  0
 17 18  1  0  0  0  0
 18 16  1  0  0  0  0
 19 20  1  0  0  0  0
 20 21  3  0  0  0  0
M  END
>  <MODEL>
8

>  <REMARK>
  Name = ZINC54179981
                            x       y       z     vdW  Elec       q    Type
                         _______ _______ _______ _____ _____    ______ ____

>  <TORSDO>
F 5

>  <minimizedAffinity>
-6.2363903554723912

$$$$
ZINC54179981
 OpenBabel10211215263D

 21 22  0  0  1  0  0  0  0  0999 V2000
   48.3750   50.8310   17.5080 C   0  0  1  0  0  0  0  0  0  0  0  0
   48.2410   51.0960   15.9900 C   0  0  0  0  0  0  0  0  0  0  0  0
   48.1090   49.6540   15.4090 C   0  0  2  0  0  0  0  0  0  0  0  0
   46.6740   49.2000   15.6870 C   0  0  0  0  0  0  0  0  0  0  0  0
   46.5510   47.6850   15.5400 C   0  0  0  0  0  0  0  0  0  0  0  0
   47.4610   47.0160   16.5760 C   0  0  0  0  0  0  0  0  0  0  0  0
   48.9080   47.4010   16.2720 C   0  0  0  0  0  0  0  0  0  0  0  0
   49.1110   48.9060   16.3120 C   0  0  2  0  0  0  0  0  0  0  0  0
   48.8970   49.4540   17.6620 N   0  0  0  0  0  0  0  0  0  0  0  0
   48.2260   48.8880   18.1600 H   0  0  0  0  0  0  0  0  0  0  0  0
   49.7710   49.4740   18.1650 H   0  0  0  0  0  0  0  0  0  0  0  0
   50.1360   51.4370   19.1350 N   0  0  0  0  0  0  0  0  0  0  0  0
   50.0940   50.5280   19.4710 H   0  0  0  0  0  0  0  0  0  0  0  0
   49.3360   51.8180   18.1200 C   0  0  0  0  0  0  0  0  0  0  0  0
   49.3870   52.9540   17.7000 O   0  0  0  0  0  0  0  0  0  0  0  0
   51.0690   52.3970   19.7320 C   0  0  1  0  0  0  0  0  0  0  0  0
   51.6370   53.6610   21.8110 C   0  0  0  0  0  0  0  0  0  0  0  0
   50.7400   52.5730   21.2160 C   0  0  0  0  0  0  0  0  0  0  0  0
   52.5000   51.8760   19.5840 C   0  0  0  0  0  0  0  0  0  0  0  0
   52.5100   50.4130   19.7470 C   0  0  0  0  0  0  0  0  0  0  0  0
   52.5180   49.2850   19.8730 N   0  0  0  0  0  0  0  0  0  0  0  0
  1  9  1  0  0  0  0
  1 14  1  6  0  0  0
  2  1  1  0  0  0  0
  3  4  1  1  0  0  0
  3  2  1  0  0  0  0
  3  8  1  0  0  0  0
  5  4  1  0  0  0  0
  5  6  1  0  0  0  0
  7  6  1  0  0  0  0
  8  7  1  1  0  0  0
  8  9  1  0  0  0  0
  9 10  1  0  0  0  0
  9 11  1  0  0  0  0
 12 13  1  0  0  0  0
 14 12  1  0  0  0  0
 15 14  2  0  0  0  0
 16 12  1  1  0  0  0
 16 18  1  0  0  0  0
 18 17  1  0  0  0  0
 19 16  1  0  0  0  0
 19 20  1  0  0  0  0
 20 21  3  0  0  0  0
M  END
>  <MODEL>
9

>  <REMARK>
  Name = ZINC54179981
                            x       y       z     vdW  Elec       q    Type
                         _______ _______ _______ _____ _____    ______ ____

>  <TORSDO>
F 5

>  <minimizedAffinity>
-6.0919747277315093

$$$$
ZINC43217592
 OpenBabel10211215273D

 21 22  0  0  1  0  0  0  0  0999 V2000
   51.0480   55.2590   20.3390 N   0  0  0  0  0  0  0  0  0  0  0  0
   50.6190   55.0170   21.1740 H   0  0  0  0  0  0  0  0  0  0  0  0
   51.8020   54.3560   19.6810 C   0  0  0  0  0  0  0  0  0  0  0  0
   52.3400   54.6590   18.6340 O   0  0  0  0  0  0  0  0  0  0  0  0
   52.4660   57.5030   21.4980 C   0  0  0  0  0  0  0  0  0  0  0  0
   51.0620   57.6380   20.9060 C   0  0  2  0  0  0  0  0  0  0  0  0
   50.0210   57.3960   22.0010 C   0  0  0  0  0  0  0  0  0  0  0  0
   48.6170   57.5320   21.4110 C   0  0  0  0  0  0  0  0  0  0  0  0
   48.4320   56.5000   20.2960 C   0  0  0  0  0  0  0  0  0  0  0  0
   49.4720   56.7420   19.1990 C   0  0  0  0  0  0  0  0  0  0  0  0
   50.8760   56.6060   19.7910 C   0  0  2  0  0  0  0  0  0  0  0  0
   51.9750   52.9990   20.2330 C   0  0  0  0  0  0  0  0  0  0  0  0
   51.8310   52.6310   21.5350 C   0  0  0  0  0  0  0  0  0  0  0  0
   52.0780   51.3130   21.5990 O   0  0  0  0  0  0  0  0  0  0  0  0
   52.3680   50.8800   20.3640 C   0  0  0  0  0  0  0  0  0  0  0  0
   52.3050   51.8790   19.5350 N   0  0  0  0  0  0  0  0  0  0  0  0
   52.7070   49.4600   19.9940 C   0  0  0  0  0  0  0  0  0  0  0  0
   51.6390   48.5640   20.4610 N   0  0  0  0  0  0  0  0  0  0  0  0
   51.5340   48.6600   21.4610 H   0  0  0  0  0  0  0  0  0  0  0  0
   51.8780   47.6110   20.2380 H   0  0  0  0  0  0  0  0  0  0  0  0
   50.3760   48.9210   19.8020 C   0  0  0  0  0  0  0  0  0  0  0  0
  1  2  1  0  0  0  0
  3 12  1  0  0  0  0
  3  1  1  0  0  0  0
  4  3  2  0  0  0  0
  6  5  1  1  0  0  0
  6  7  1  0  0  0  0
  8  7  1  0  0  0  0
  9  8  1  0  0  0  0
 10 11  1  0  0  0  0
 10  9  1  0  0  0  0
 11  1  1  1  0  0  0
 11  6  1  0  0  0  0
 12 13  2  0  0  0  0
 13 14  1  0  0  0  0
 15 14  1  0  0  0  0
 16 12  1  0  0  0  0
 16 15  2  0  0  0  0
 17 15  1  0  0  0  0
 17 18  1  0  0  0  0
 18 19  1  0  0  0  0
 20 18  1  0  0  0  0
 21 18  1  0  0  0  0
M  END
>  <MODEL>
1

>  <REMARK>
  Name = ZINC43217592
                            x       y       z     vdW  Elec       q    Type
                         _______ _______ _______ _____ _____    ______ ____

>  <TORSDO>
F 4

>  <minimizedAffinity>
-7.1387728505241084

$$$$
ZINC43217592
 OpenBabel10211215273D

 21 22  0  0  1  0  0  0  0  0999 V2000
   49.5100   50.3540   18.2220 N   0  0  0  0  0  0  0  0  0  0  0  0
   48.9070   50.3640   18.9810 H   0  0  0  0  0  0  0  0  0  0  0  0
   50.7730   50.8040   18.3560 C   0  0  0  0  0  0  0  0  0  0  0  0
   51.5280   50.7910   17.4040 O   0  0  0  0  0  0  0  0  0  0  0  0
   48.2940   52.1450   16.2970 C   0  0  0  0  0  0  0  0  0  0  0  0
   47.8610   50.6840   16.4450 C   0  0  2  0  0  0  0  0  0  0  0  0
   46.7240   50.5910   17.4640 C   0  0  0  0  0  0  0  0  0  0  0  0
   46.2900   49.1320   17.6130 C   0  0  0  0  0  0  0  0  0  0  0  0
   47.4770   48.2940   18.0940 C   0  0  0  0  0  0  0  0  0  0  0  0
   48.6140   48.3870   17.0750 C   0  0  0  0  0  0  0  0  0  0  0  0
   49.0480   49.8470   16.9270 C   0  0  2  0  0  0  0  0  0  0  0  0
   51.2380   51.3150   19.6590 C   0  0  0  0  0  0  0  0  0  0  0  0
   52.0010   50.6440   20.5640 C   0  0  0  0  0  0  0  0  0  0  0  0
   52.1920   51.4710   21.6040 O   0  0  0  0  0  0  0  0  0  0  0  0
   51.5600   52.6240   21.3450 C   0  0  0  0  0  0  0  0  0  0  0  0
   50.9890   52.5460   20.1800 N   0  0  0  0  0  0  0  0  0  0  0  0
   51.5230   53.8230   22.2560 C   0  0  0  0  0  0  0  0  0  0  0  0
   51.8360   55.0340   21.4840 N   0  0  0  0  0  0  0  0  0  0  0  0
   51.2630   55.0600   20.6530 H   0  0  0  0  0  0  0  0  0  0  0  0
   52.8090   55.0230   21.2210 H   0  0  0  0  0  0  0  0  0  0  0  0
   51.5620   56.2220   22.3030 C   0  0  0  0  0  0  0  0  0  0  0  0
  1  3  1  0  0  0  0
  1  2  1  0  0  0  0
  3 12  1  0  0  0  0
  4  3  2  0  0  0  0
  6  5  1  1  0  0  0
  6 11  1  0  0  0  0
  6  7  1  0  0  0  0
  7  8  1  0  0  0  0
  8  9  1  0  0  0  0
 10  9  1  0  0  0  0
 11 10  1  0  0  0  0
 11  1  1  1  0  0  0
 12 16  1  0  0  0  0
 12 13  2  0  0  0  0
 13 14  1  0  0  0  0
 15 14  1  0  0  0  0
 15 17  1  0  0  0  0
 16 15  2  0  0  0  0
 18 17  1  0  0  0  0
 18 21  1  0  0  0  0
 19 18  1  0  0  0  0
 20 18  1  0  0  0  0
M  END
>  <MODEL>
2

>  <REMARK>
  Name = ZINC43217592
                            x       y       z     vdW  Elec       q    Type
                         _______ _______ _______ _____ _____    ______ ____

>  <TORSDO>
F 4

>  <minimizedAffinity>
-6.6429469335632252

$$$$
ZINC43217592
 OpenBabel10211215273D

 21 22  0  0  1  0  0  0  0  0999 V2000
   48.0370   49.4500   17.9350 N   0  0  0  0  0  0  0  0  0  0  0  0
   47.5860   50.1560   17.4470 H   0  0  0  0  0  0  0  0  0  0  0  0
   49.1800   49.7110   18.5990 C   0  0  0  0  0  0  0  0  0  0  0  0
   49.7450   48.8240   19.2100 O   0  0  0  0  0  0  0  0  0  0  0  0
   48.8910   47.4840   15.9860 C   0  0  0  0  0  0  0  0  0  0  0  0
   47.4610   47.5330   16.5290 C   0  0  2  0  0  0  0  0  0  0  0  0
   46.6050   48.4310   15.6330 C   0  0  0  0  0  0  0  0  0  0  0  0
   45.1760   48.4790   16.1740 C   0  0  0  0  0  0  0  0  0  0  0  0
   45.1890   49.0430   17.5960 C   0  0  0  0  0  0  0  0  0  0  0  0
   46.0430   48.1450   18.4940 C   0  0  0  0  0  0  0  0  0  0  0  0
   47.4740   48.0970   17.9510 C   0  0  2  0  0  0  0  0  0  0  0  0
   49.7470   51.0720   18.5830 C   0  0  0  0  0  0  0  0  0  0  0  0
   49.4170   52.0750   17.7250 C   0  0  0  0  0  0  0  0  0  0  0  0
   50.1670   53.1380   18.0590 O   0  0  0  0  0  0  0  0  0  0  0  0
   50.9390   52.7960   19.0980 C   0  0  0  0  0  0  0  0  0  0  0  0
   50.6950   51.5630   19.4260 N   0  0  0  0  0  0  0  0  0  0  0  0
   51.9310   53.7000   19.7830 C   0  0  0  0  0  0  0  0  0  0  0  0
   52.2330   53.1710   21.1210 N   0  0  0  0  0  0  0  0  0  0  0  0
   53.2290   53.2140   21.2810 H   0  0  0  0  0  0  0  0  0  0  0  0
   51.9230   52.2140   21.1810 H   0  0  0  0  0  0  0  0  0  0  0  0
   51.5400   53.9760   22.1350 C   0  0  0  0  0  0  0  0  0  0  0  0
  1  3  1  0  0  0  0
  2  1  1  0  0  0  0
  3  4  2  0  0  0  0
  6  5  1  6  0  0  0
  6 11  1  0  0  0  0
  7  8  1  0  0  0  0
  7  6  1  0  0  0  0
  8  9  1  0  0  0  0
  9 10  1  0  0  0  0
 11  1  1  6  0  0  0
 11 10  1  0  0  0  0
 12  3  1  0  0  0  0
 12 16  1  0  0  0  0
 13 14  1  0  0  0  0
 13 12  2  0  0  0  0
 14 15  1  0  0  0  0
 15 16  2  0  0  0  0
 15 17  1  0  0  0  0
 17 18  1  0  0  0  0
 18 20  1  0  0  0  0
 18 19  1  0  0  0  0
 18 21  1  0  0  0  0
M  END
>  <MODEL>
3

>  <REMARK>
  Name = ZINC43217592
                            x       y       z     vdW  Elec       q    Type
                         _______ _______ _______ _____ _____    ______ ____

>  <TORSDO>
F 4

>  <minimizedAffinity>
-6.6111074280846509

$$$$
ZINC43217592
 OpenBabel10211215273D

 21 22  0  0  1  0  0  0  0  0999 V2000
   50.0040   50.8650   18.6580 N   0  0  0  0  0  0  0  0  0  0  0  0
   49.5300   50.7010   19.4870 H   0  0  0  0  0  0  0  0  0  0  0  0
   49.6430   50.2150   17.5340 C   0  0  0  0  0  0  0  0  0  0  0  0
   50.2380   50.4210   16.4940 O   0  0  0  0  0  0  0  0  0  0  0  0
   52.4710   50.2950   20.0640 C   0  0  0  0  0  0  0  0  0  0  0  0
   51.9170   51.7150   19.9230 C   0  0  2  0  0  0  0  0  0  0  0  0
   51.0080   52.0280   21.1130 C   0  0  0  0  0  0  0  0  0  0  0  0
   50.4540   53.4470   20.9730 C   0  0  0  0  0  0  0  0  0  0  0  0
   49.6500   53.5540   19.6750 C   0  0  0  0  0  0  0  0  0  0  0  0
   50.5590   53.2420   18.4850 C   0  0  0  0  0  0  0  0  0  0  0  0
   51.1130   51.8220   18.6250 C   0  0  2  0  0  0  0  0  0  0  0  0
   48.5270   49.2520   17.5660 C   0  0  0  0  0  0  0  0  0  0  0  0
   48.6080   47.9130   17.3410 C   0  0  0  0  0  0  0  0  0  0  0  0
   47.3660   47.4190   17.4680 O   0  0  0  0  0  0  0  0  0  0  0  0
   46.5400   48.4310   17.7630 C   0  0  0  0  0  0  0  0  0  0  0  0
   47.2230   49.5350   17.8310 N   0  0  0  0  0  0  0  0  0  0  0  0
   45.0560   48.3090   17.9890 C   0  0  0  0  0  0  0  0  0  0  0  0
   44.7350   46.9360   18.4040 N   0  0  0  0  0  0  0  0  0  0  0  0
   45.5490   46.3510   18.2860 H   0  0  0  0  0  0  0  0  0  0  0  0
   43.9800   46.5820   17.8370 H   0  0  0  0  0  0  0  0  0  0  0  0
   44.3310   46.9330   19.8160 C   0  0  0  0  0  0  0  0  0  0  0  0
  1  2  1  0  0  0  0
  3 12  1  0  0  0  0
  3  1  1  0  0  0  0
  4  3  2  0  0  0  0
  6  5  1  1  0  0  0
  6  7  1  0  0  0  0
  8  7  1  0  0  0  0
  9  8  1  0  0  0  0
 10 11  1  0  0  0  0
 10  9  1  0  0  0  0
 11  1  1  1  0  0  0
 11  6  1  0  0  0  0
 12 16  1  0  0  0  0
 13 14  1  0  0  0  0
 13 12  2  0  0  0  0
 14 15  1  0  0  0  0
 15 16  2  0  0  0  0
 15 17  1  0  0  0  0
 17 18  1  0  0  0  0
 18 21  1  0  0  0  0
 19 18  1  0  0  0  0
 20 18  1  0  0  0  0
M  END
>  <MODEL>
4

>  <REMARK>
  Name = ZINC43217592
                            x       y       z     vdW  Elec       q    Type
                         _______ _______ _______ _____ _____    ______ ____

>  <TORSDO>
F 4

>  <minimizedAffinity>
-6.420492637279545

$$$$
ZINC43217592
 OpenBabel10211215273D

 21 22  0  0  1  0  0  0  0  0999 V2000
   50.7720   52.2950   18.7830 N   0  0  0  0  0  0  0  0  0  0  0  0
   49.9240   52.2700   19.2530 H   0  0  0  0  0  0  0  0  0  0  0  0
   51.5460   53.3970   18.8440 C   0  0  0  0  0  0  0  0  0  0  0  0
   52.6080   53.4280   18.2540 O   0  0  0  0  0  0  0  0  0  0  0  0
   49.2030   51.3590   16.5350 C   0  0  0  0  0  0  0  0  0  0  0  0
   49.9900   50.4080   17.4380 C   0  0  2  0  0  0  0  0  0  0  0  0
   49.0960   49.9410   18.5890 C   0  0  0  0  0  0  0  0  0  0  0  0
   49.8810   48.9890   19.4920 C   0  0  0  0  0  0  0  0  0  0  0  0
   51.1030   49.7160   20.0580 C   0  0  0  0  0  0  0  0  0  0  0  0
   51.9980   50.1820   18.9080 C   0  0  0  0  0  0  0  0  0  0  0  0
   51.2120   51.1350   18.0050 C   0  0  2  0  0  0  0  0  0  0  0  0
   51.1030   54.5650   19.6270 C   0  0  0  0  0  0  0  0  0  0  0  0
   49.9090   54.7070   20.2640 C   0  0  0  0  0  0  0  0  0  0  0  0
   49.9190   55.9140   20.8510 O   0  0  0  0  0  0  0  0  0  0  0  0
   51.0920   56.5020   20.5810 C   0  0  0  0  0  0  0  0  0  0  0  0
   51.8140   55.7030   19.8530 N   0  0  0  0  0  0  0  0  0  0  0  0
   51.5120   57.8700   21.0520 C   0  0  0  0  0  0  0  0  0  0  0  0
   52.3900   57.7360   22.2230 N   0  0  0  0  0  0  0  0  0  0  0  0
   52.3010   56.8060   22.6060 H   0  0  0  0  0  0  0  0  0  0  0  0
   52.1260   58.4140   22.9210 H   0  0  0  0  0  0  0  0  0  0  0  0
   53.7840   57.9660   21.8190 C   0  0  0  0  0  0  0  0  0  0  0  0
  1  3  1  0  0  0  0
  1  2  1  0  0  0  0
  3 12  1  0  0  0  0
  4  3  2  0  0  0  0
  6  5  1  1  0  0  0
  6 11  1  0  0  0  0
  6  7  1  0  0  0  0
  7  8  1  0  0  0  0
  8  9  1  0  0  0  0
 10  9  1  0  0  0  0
 11  1  1  1  0  0  0
 11 10  1  0  0  0  0
 12 16  1  0  0  0  0
 12 13  2  0  0  0  0
 13 14  1  0  0  0  0
 15 14  1  0  0  0  0
 15 17  1  0  0  0  0
 16 15  2  0  0  0  0
 17 18  1  0  0  0  0
 18 19  1  0  0  0  0
 18 20  1  0  0  0  0
 21 18  1  0  0  0  0
M  END
>  <MODEL>
5

>  <REMARK>
  Name = ZINC43217592
                            x       y       z     vdW  Elec       q    Type
                         _______ _______ _______ _____ _____    ______ ____

>  <TORSDO>
F 4

>  <minimizedAffinity>
-6.361113406783053

$$$$
ZINC43217592
 OpenBabel10211215273D

 21 22  0  0  1  0  0  0  0  0999 V2000
   48.9360   50.7450   17.4240 N   0  0  0  0  0  0  0  0  0  0  0  0
   48.0810   51.1940   17.5080 H   0  0  0  0  0  0  0  0  0  0  0  0
   50.0770   51.4100   17.6930 C   0  0  0  0  0  0  0  0  0  0  0  0
   51.1490   50.8470   17.5860 O   0  0  0  0  0  0  0  0  0  0  0  0
   48.2080   49.9990   14.7210 C   0  0  0  0  0  0  0  0  0  0  0  0
   47.9320   49.0950   15.9240 C   0  0  2  0  0  0  0  0  0  0  0  0
   46.5450   49.4060   16.4890 C   0  0  0  0  0  0  0  0  0  0  0  0
   46.2680   48.5010   17.6900 C   0  0  0  0  0  0  0  0  0  0  0  0
   47.3250   48.7500   18.7690 C   0  0  0  0  0  0  0  0  0  0  0  0
   48.7130   48.4370   18.2050 C   0  0  0  0  0  0  0  0  0  0  0  0
   48.9890   49.3430   17.0020 C   0  0  2  0  0  0  0  0  0  0  0  0
   50.0250   52.8210   18.1170 C   0  0  0  0  0  0  0  0  0  0  0  0
   48.9750   53.6730   17.9640 C   0  0  0  0  0  0  0  0  0  0  0  0
   49.3480   54.8520   18.4850 O   0  0  0  0  0  0  0  0  0  0  0  0
   50.5990   54.7290   18.9490 C   0  0  0  0  0  0  0  0  0  0  0  0
   51.0150   53.5160   18.7400 N   0  0  0  0  0  0  0  0  0  0  0  0
   51.3960   55.8210   19.6130 C   0  0  0  0  0  0  0  0  0  0  0  0
   52.0950   55.2740   20.7840 N   0  0  0  0  0  0  0  0  0  0  0  0
   53.0870   55.2400   20.5980 H   0  0  0  0  0  0  0  0  0  0  0  0
   51.7560   54.3440   20.9740 H   0  0  0  0  0  0  0  0  0  0  0  0
   51.8470   56.1340   21.9490 C   0  0  0  0  0  0  0  0  0  0  0  0
  1  2  1  0  0  0  0
  1  3  1  0  0  0  0
  3 12  1  0  0  0  0
  4  3  2  0  0  0  0
  6  5  1  1  0  0  0
  6  7  1  0  0  0  0
  6 11  1  0  0  0  0
  7  8  1  0  0  0  0
  8  9  1  0  0  0  0
 10  9  1  0  0  0  0
 11  1  1  1  0  0  0
 11 10  1  0  0  0  0
 12 16  1  0  0  0  0
 13 12  2  0  0  0  0
 13 14  1  0  0  0  0
 14 15  1  0  0  0  0
 15 17  1  0  0  0  0
 16 15  2  0  0  0  0
 17 18  1  0  0  0  0
 18 20  1  0  0  0  0
 18 21  1  0  0  0  0
 19 18  1  0  0  0  0
M  END
>  <MODEL>
6

>  <REMARK>
  Name = ZINC43217592
                            x       y       z     vdW  Elec       q    Type
                         _______ _______ _______ _____ _____    ______ ____

>  <TORSDO>
F 4

>  <minimizedAffinity>
-6.3085840532966531

$$$$
ZINC43217592
 OpenBabel10211215273D

 21 22  0  0  1  0  0  0  0  0999 V2000
   49.1910   49.9820   17.6480 N   0  0  0  0  0  0  0  0  0  0  0  0
   48.8700   50.6390   17.0120 H   0  0  0  0  0  0  0  0  0  0  0  0
   50.1260   50.3220   18.5570 C   0  0  0  0  0  0  0  0  0  0  0  0
   50.5280   49.4960   19.3540 O   0  0  0  0  0  0  0  0  0  0  0  0
   49.6370   48.2830   15.3440 C   0  0  0  0  0  0  0  0  0  0  0  0
   48.3530   48.2180   16.1750 C   0  0  2  0  0  0  0  0  0  0  0  0
   47.3180   49.1800   15.5890 C   0  0  0  0  0  0  0  0  0  0  0  0
   46.0350   49.1160   16.4180 C   0  0  0  0  0  0  0  0  0  0  0  0
   46.3410   49.5140   17.8630 C   0  0  0  0  0  0  0  0  0  0  0  0
   47.3760   48.5510   18.4500 C   0  0  0  0  0  0  0  0  0  0  0  0
   48.6600   48.6170   17.6200 C   0  0  2  0  0  0  0  0  0  0  0  0
   50.6610   51.6950   18.5850 C   0  0  0  0  0  0  0  0  0  0  0  0
   51.9130   52.0820   18.2200 C   0  0  0  0  0  0  0  0  0  0  0  0
   51.9800   53.4110   18.4000 O   0  0  0  0  0  0  0  0  0  0  0  0
   50.7960   53.8310   18.8660 C   0  0  0  0  0  0  0  0  0  0  0  0
   49.9950   52.8150   18.9770 N   0  0  0  0  0  0  0  0  0  0  0  0
   50.4470   55.2580   19.2020 C   0  0  0  0  0  0  0  0  0  0  0  0
   49.0810   55.5480   18.7450 N   0  0  0  0  0  0  0  0  0  0  0  0
   48.6520   54.6990   18.4060 H   0  0  0  0  0  0  0  0  0  0  0  0
   49.1120   56.2290   18.0020 H   0  0  0  0  0  0  0  0  0  0  0  0
   48.2920   56.0790   19.8640 C   0  0  0  0  0  0  0  0  0  0  0  0
  1  3  1  0  0  0  0
  2  1  1  0  0  0  0
  3 12  1  0  0  0  0
  3  4  2  0  0  0  0
  6  5  1  1  0  0  0
  6 11  1  0  0  0  0
  7  6  1  0  0  0  0
  7  8  1  0  0  0  0
  8  9  1  0  0  0  0
  9 10  1  0  0  0  0
 11  1  1  6  0  0  0
 11 10  1  0  0  0  0
 12 16  1  0  0  0  0
 13 14  1  0  0  0  0
 13 12  2  0  0  0  0
 14 15  1  0  0  0  0
 15 16  2  0  0  0  0
 15 17  1  0  0  0  0
 18 17  1  0  0  0  0
 18 21  1  0  0  0  0
 19 18  1  0  0  0  0
 20 18  1  0  0  0  0
M  END
>  <MODEL>
7

>  <REMARK>
  Name = ZINC43217592
                            x       y       z     vdW  Elec       q    Type
                         _______ _______ _______ _____ _____    ______ ____

>  <TORSDO>
F 4

>  <minimizedAffinity>
-6.0931339609204302

$$$$
ZINC43217592
 OpenBabel10211215273D

 21 22  0  0  1  0  0  0  0  0999 V2000
   50.8030   54.6830   20.4920 N   0  0  0  0  0  0  0  0  0  0  0  0
   51.0410   55.0710   19.6360 H   0  0  0  0  0  0  0  0  0  0  0  0
   50.7010   53.3450   20.6220 C   0  0  0  0  0  0  0  0  0  0  0  0
   50.4020   52.8590   21.6950 O   0  0  0  0  0  0  0  0  0  0  0  0
   48.5090   56.4520   20.5260 C   0  0  0  0  0  0  0  0  0  0  0  0
   49.8400   56.8230   21.1820 C   0  0  2  0  0  0  0  0  0  0  0  0
   50.7190   57.5600   20.1700 C   0  0  0  0  0  0  0  0  0  0  0  0
   52.0500   57.9330   20.8250 C   0  0  0  0  0  0  0  0  0  0  0  0
   52.7630   56.6600   21.2890 C   0  0  0  0  0  0  0  0  0  0  0  0
   51.8850   55.9230   22.3020 C   0  0  0  0  0  0  0  0  0  0  0  0
   50.5540   55.5510   21.6460 C   0  0  2  0  0  0  0  0  0  0  0  0
   50.9520   52.4720   19.4610 C   0  0  0  0  0  0  0  0  0  0  0  0
   52.1520   52.2500   18.8600 C   0  0  0  0  0  0  0  0  0  0  0  0
   51.9310   51.3950   17.8490 O   0  0  0  0  0  0  0  0  0  0  0  0
   50.6250   51.0970   17.8280 C   0  0  0  0  0  0  0  0  0  0  0  0
   50.0270   51.7310   18.7920 N   0  0  0  0  0  0  0  0  0  0  0  0
   49.9570   50.1690   16.8480 C   0  0  0  0  0  0  0  0  0  0  0  0
   50.1500   50.6770   15.4830 N   0  0  0  0  0  0  0  0  0  0  0  0
   50.8970   51.3570   15.4800 H   0  0  0  0  0  0  0  0  0  0  0  0
   49.2990   51.1110   15.1620 H   0  0  0  0  0  0  0  0  0  0  0  0
   50.5010   49.5640   14.5910 C   0  0  0  0  0  0  0  0  0  0  0  0
  1  3  1  0  0  0  0
  2  1  1  0  0  0  0
  3  4  2  0  0  0  0
  6  5  1  6  0  0  0
  6 11  1  0  0  0  0
  7  8  1  0  0  0  0
  7  6  1  0  0  0  0
  8  9  1  0  0  0  0
  9 10  1  0  0  0  0
 11  1  1  6  0  0  0
 11 10  1  0  0  0  0
 12  3  1  0  0  0  0
 13 12  2  0  0  0  0
 14 13  1  0  0  0  0
 15 14  1  0  0  0  0
 15 16  2  0  0  0  0
 16 12  1  0  0  0  0
 17 15  1  0  0  0  0
 18 17  1  0  0  0  0
 19 18  1  0  0  0  0
 20 18  1  0  0  0  0
 21 18  1  0  0  0  0
M  END
>  <MODEL>
8

>  <REMARK>
  Name = ZINC43217592
                            x       y       z     vdW  Elec       q    Type
                         _______ _______ _______ _____ _____    ______ ____

>  <TORSDO>
F 4

>  <minimizedAffinity>
-6.0692480503163138

$$$$
ZINC43217592
 OpenBabel10211215273D

 21 22  0  0  1  0  0  0  0  0999 V2000
   49.1810   54.7450   18.5210 N   0  0  0  0  0  0  0  0  0  0  0  0
   49.3670   54.2440   19.3300 H   0  0  0  0  0  0  0  0  0  0  0  0
   48.6260   54.1280   17.4590 C   0  0  0  0  0  0  0  0  0  0  0  0
   48.3930   54.7560   16.4440 O   0  0  0  0  0  0  0  0  0  0  0  0
   51.8430   55.6800   19.1770 C   0  0  0  0  0  0  0  0  0  0  0  0
   50.5870   56.5000   19.4810 C   0  0  2  0  0  0  0  0  0  0  0  0
   50.0810   56.1580   20.8830 C   0  0  0  0  0  0  0  0  0  0  0  0
   48.8270   56.9780   21.1880 C   0  0  0  0  0  0  0  0  0  0  0  0
   47.7410   56.6500   20.1600 C   0  0  0  0  0  0  0  0  0  0  0  0
   48.2470   56.9940   18.7570 C   0  0  0  0  0  0  0  0  0  0  0  0
   49.5020   56.1730   18.4530 C   0  0  2  0  0  0  0  0  0  0  0  0
   48.3030   52.6910   17.5260 C   0  0  0  0  0  0  0  0  0  0  0  0
   47.1460   52.1030   17.1180 C   0  0  0  0  0  0  0  0  0  0  0  0
   47.2700   50.7880   17.3590 O   0  0  0  0  0  0  0  0  0  0  0  0
   48.4750   50.5730   17.9030 C   0  0  0  0  0  0  0  0  0  0  0  0
   49.1070   51.7040   18.0040 N   0  0  0  0  0  0  0  0  0  0  0  0
   49.0150   49.2310   18.3250 C   0  0  0  0  0  0  0  0  0  0  0  0
   50.4160   49.3780   18.7450 N   0  0  0  0  0  0  0  0  0  0  0  0
   50.6950   50.3440   18.6530 H   0  0  0  0  0  0  0  0  0  0  0  0
   51.0040   48.8010   18.1630 H   0  0  0  0  0  0  0  0  0  0  0  0
   50.5540   48.9620   20.1470 C   0  0  0  0  0  0  0  0  0  0  0  0
  1  2  1  0  0  0  0
  3 12  1  0  0  0  0
  3  1  1  0  0  0  0
  4  3  2  0  0  0  0
  6  5  1  1  0  0  0
  6  7  1  0  0  0  0
  7  8  1  0  0  0  0
  9  8  1  0  0  0  0
 10  9  1  0  0  0  0
 11  1  1  1  0  0  0
 11 10  1  0  0  0  0
 11  6  1  0  0  0  0
 12 16  1  0  0  0  0
 13 14  1  0  0  0  0
 13 12  2  0  0  0  0
 14 15  1  0  0  0  0
 15 16  2  0  0  0  0
 15 17  1  0  0  0  0
 17 18  1  0  0  0  0
 18 21  1  0  0  0  0
 19 18  1  0  0  0  0
 20 18  1  0  0  0  0
M  END
>  <MODEL>
9

>  <REMARK>
  Name = ZINC43217592
                            x       y       z     vdW  Elec       q    Type
                         _______ _______ _______ _____ _____    ______ ____

>  <TORSDO>
F 4

>  <minimizedAffinity>
-6.0392019885936996

$$$$
ZINC63025192
 OpenBabel10211215273D

 19 19  0  0  1  0  0  0  0  0999 V2000
   50.9020   53.1950   21.2220 C   0  0  0  0  0  0  0  0  0  0  0  0
   51.5660   54.5460   21.2770 C   0  0  0  0  0  0  0  0  0  0  0  0
   51.5300   55.2780   22.4480 C   0  0  0  0  0  0  0  0  0  0  0  0
   52.1450   56.5200   22.4870 C   0  0  0  0  0  0  0  0  0  0  0  0
   52.7770   56.9810   21.3420 C   0  0  0  0  0  0  0  0  0  0  0  0
   52.7710   56.1920   20.2070 C   0  0  0  0  0  0  0  0  0  0  0  0
   52.1810   55.0140   20.2070 N   0  0  0  0  0  0  0  0  0  0  0  0
   53.4460   58.3000   21.3340 N   0  0  0  0  0  0  0  0  0  0  0  0
   53.0220   59.1970   22.0260 O   0  0  0  0  0  0  0  0  0  0  0  0
   54.4180   58.4810   20.6380 O   0  0  0  0  0  0  0  0  0  0  0  0
   51.9470   52.1260   20.8940 C   0  0  2  0  0  0  0  0  0  0  0  0
   50.8100   49.9160   20.6400 C   0  0  0  0  0  0  0  0  0  0  0  0
   51.3620   51.1310   19.8900 C   0  0  0  0  0  0  0  0  0  0  0  0
   50.2330   51.8020   19.1060 C   0  0  0  0  0  0  0  0  0  0  0  0
   52.4560   50.6780   18.9210 C   0  0  0  0  0  0  0  0  0  0  0  0
   52.3240   51.4160   22.1240 N   0  0  0  0  0  0  0  0  0  0  0  0
   53.0730   51.9120   22.5830 H   0  0  0  0  0  0  0  0  0  0  0  0
   52.6310   50.4830   21.8940 H   0  0  0  0  0  0  0  0  0  0  0  0
   51.5260   51.3640   22.7410 H   0  0  0  0  0  0  0  0  0  0  0  0
  1  2  1  0  0  0  0
  2  3  2  0  0  0  0
  3  4  1  0  0  0  0
  5  4  2  0  0  0  0
  6  7  2  0  0  0  0
  6  5  1  0  0  0  0
  7  2  1  0  0  0  0
  8  5  1  0  0  0  0
  8  9  2  0  0  0  0
 10  8  2  0  0  0  0
 11 13  1  1  0  0  0
 11  1  1  0  0  0  0
 11 16  1  0  0  0  0
 13 12  1  0  0  0  0
 14 13  1  0  0  0  0
 15 13  1  0  0  0  0
 16 17  1  0  0  0  0
 16 19  1  0  0  0  0
 18 16  1  0  0  0  0
M  END
>  <MODEL>
1

>  <REMARK>
  Name = ZINC63025192
                            x       y       z     vdW  Elec       q    Type
                         _______ _______ _______ _____ _____    ______ ____

>  <TORSDO>
F 5

>  <minimizedAffinity>
-6.7097344770261085

$$$$
ZINC63025192
 OpenBabel10211215273D

 19 19  0  0  1  0  0  0  0  0999 V2000
   50.3420   50.5560   19.2330 C   0  0  0  0  0  0  0  0  0  0  0  0
   50.8080   51.7970   19.9490 C   0  0  0  0  0  0  0  0  0  0  0  0
   51.1190   51.7340   21.2940 C   0  0  0  0  0  0  0  0  0  0  0  0
   51.5480   52.8820   21.9430 C   0  0  0  0  0  0  0  0  0  0  0  0
   51.6480   54.0560   21.2100 C   0  0  0  0  0  0  0  0  0  0  0  0
   51.3200   54.0410   19.8680 C   0  0  0  0  0  0  0  0  0  0  0  0
   50.9210   52.9300   19.2830 N   0  0  0  0  0  0  0  0  0  0  0  0
   52.1010   55.3070   21.8590 N   0  0  0  0  0  0  0  0  0  0  0  0
   51.9410   55.4630   23.0470 O   0  0  0  0  0  0  0  0  0  0  0  0
   52.6310   56.1710   21.2000 O   0  0  0  0  0  0  0  0  0  0  0  0
   49.9290   50.9150   17.8040 C   0  0  2  0  0  0  0  0  0  0  0  0
   47.5120   51.0840   17.1940 C   0  0  0  0  0  0  0  0  0  0  0  0
   48.6800   50.1210   17.4190 C   0  0  0  0  0  0  0  0  0  0  0  0
   48.9510   49.3380   16.1320 C   0  0  0  0  0  0  0  0  0  0  0  0
   48.3280   49.1450   18.5440 C   0  0  0  0  0  0  0  0  0  0  0  0
   51.0240   50.5850   16.8810 N   0  0  0  0  0  0  0  0  0  0  0  0
   51.8230   51.1660   17.0850 H   0  0  0  0  0  0  0  0  0  0  0  0
   50.7240   50.7480   15.9320 H   0  0  0  0  0  0  0  0  0  0  0  0
   51.2760   49.6140   16.9920 H   0  0  0  0  0  0  0  0  0  0  0  0
  1  2  1  0  0  0  0
  2  3  2  0  0  0  0
  3  4  1  0  0  0  0
  5  8  1  0  0  0  0
  5  4  2  0  0  0  0
  6  5  1  0  0  0  0
  7  6  2  0  0  0  0
  7  2  1  0  0  0  0
  8  9  2  0  0  0  0
 10  8  2  0  0  0  0
 11 16  1  1  0  0  0
 11  1  1  0  0  0  0
 12 13  1  0  0  0  0
 13 11  1  0  0  0  0
 13 15  1  0  0  0  0
 14 13  1  0  0  0  0
 16 19  1  0  0  0  0
 16 17  1  0  0  0  0
 18 16  1  0  0  0  0
M  END
>  <MODEL>
2

>  <REMARK>
  Name = ZINC63025192
                            x       y       z     vdW  Elec       q    Type
                         _______ _______ _______ _____ _____    ______ ____

>  <TORSDO>
F 5

>  <minimizedAffinity>
-6.3427874469629195

$$$$
ZINC63025192
 OpenBabel10211215273D

 19 19  0  0  1  0  0  0  0  0999 V2000
   49.8750   50.5390   18.1610 C   0  0  0  0  0  0  0  0  0  0  0  0
   48.5150   49.8960   18.0750 C   0  0  0  0  0  0  0  0  0  0  0  0
   47.6070   50.3420   17.1330 C   0  0  0  0  0  0  0  0  0  0  0  0
   46.3590   49.7430   17.0620 C   0  0  0  0  0  0  0  0  0  0  0  0
   46.0690   48.7130   17.9450 C   0  0  0  0  0  0  0  0  0  0  0  0
   47.0280   48.3220   18.8590 C   0  0  0  0  0  0  0  0  0  0  0  0
   48.2070   48.9100   18.8960 N   0  0  0  0  0  0  0  0  0  0  0  0
   44.7500   48.0440   17.9070 N   0  0  0  0  0  0  0  0  0  0  0  0
   44.1460   47.9580   16.8640 O   0  0  0  0  0  0  0  0  0  0  0  0
   44.2780   47.5820   18.9200 O   0  0  0  0  0  0  0  0  0  0  0  0
   50.4480   50.3330   19.5660 C   0  0  2  0  0  0  0  0  0  0  0  0
   50.4900   52.7400   20.2350 C   0  0  0  0  0  0  0  0  0  0  0  0
   51.3520   51.5140   19.9260 C   0  0  0  0  0  0  0  0  0  0  0  0
   52.1920   51.1580   21.1540 C   0  0  0  0  0  0  0  0  0  0  0  0
   52.2790   51.8260   18.7480 C   0  0  0  0  0  0  0  0  0  0  0  0
   51.2310   49.0910   19.5970 N   0  0  0  0  0  0  0  0  0  0  0  0
   51.2770   48.6970   18.6690 H   0  0  0  0  0  0  0  0  0  0  0  0
   50.7900   48.4300   20.2200 H   0  0  0  0  0  0  0  0  0  0  0  0
   52.1650   49.2890   19.9250 H   0  0  0  0  0  0  0  0  0  0  0  0
  2  1  1  0  0  0  0
  2  7  2  0  0  0  0
  3  2  1  0  0  0  0
  4  3  2  0  0  0  0
  4  5  1  0  0  0  0
  5  6  2  0  0  0  0
  6  7  1  0  0  0  0
  8  5  1  0  0  0  0
  8 10  2  0  0  0  0
  9  8  2  0  0  0  0
 11  1  1  6  0  0  0
 11 16  1  0  0  0  0
 11 13  1  0  0  0  0
 13 12  1  0  0  0  0
 13 14  1  0  0  0  0
 15 13  1  0  0  0  0
 16 19  1  0  0  0  0
 16 18  1  0  0  0  0
 17 16  1  0  0  0  0
M  END
>  <MODEL>
3

>  <REMARK>
  Name = ZINC63025192
                            x       y       z     vdW  Elec       q    Type
                         _______ _______ _______ _____ _____    ______ ____

>  <TORSDO>
F 5

>  <minimizedAffinity>
-6.3061718805463389

$$$$
ZINC63025192
 OpenBabel10211215273D

 19 19  0  0  1  0  0  0  0  0999 V2000
   51.9040   55.7450   20.7820 C   0  0  0  0  0  0  0  0  0  0  0  0
   51.9990   54.2480   20.6470 C   0  0  0  0  0  0  0  0  0  0  0  0
   51.5880   53.4410   21.6910 C   0  0  0  0  0  0  0  0  0  0  0  0
   51.6790   52.0640   21.5560 C   0  0  0  0  0  0  0  0  0  0  0  0
   52.1800   51.5480   20.3710 C   0  0  0  0  0  0  0  0  0  0  0  0
   52.5710   52.4180   19.3710 C   0  0  0  0  0  0  0  0  0  0  0  0
   52.4660   53.7220   19.5310 N   0  0  0  0  0  0  0  0  0  0  0  0
   52.2960   50.0850   20.1800 N   0  0  0  0  0  0  0  0  0  0  0  0
   53.3750   49.5900   19.9490 O   0  0  0  0  0  0  0  0  0  0  0  0
   51.3130   49.3860   20.2570 O   0  0  0  0  0  0  0  0  0  0  0  0
   50.7270   56.1030   21.6920 C   0  0  2  0  0  0  0  0  0  0  0  0
   49.0440   57.9440   21.8340 C   0  0  0  0  0  0  0  0  0  0  0  0
   49.7030   56.9230   20.9040 C   0  0  0  0  0  0  0  0  0  0  0  0
   50.4070   57.6550   19.7600 C   0  0  0  0  0  0  0  0  0  0  0  0
   48.6340   55.9900   20.3310 C   0  0  0  0  0  0  0  0  0  0  0  0
   51.2120   56.8910   22.8320 N   0  0  0  0  0  0  0  0  0  0  0  0
   50.7010   57.7600   22.8840 H   0  0  0  0  0  0  0  0  0  0  0  0
   52.1950   57.0870   22.7130 H   0  0  0  0  0  0  0  0  0  0  0  0
   51.0760   56.3690   23.6860 H   0  0  0  0  0  0  0  0  0  0  0  0
  2  1  1  0  0  0  0
  2  3  2  0  0  0  0
  4  3  1  0  0  0  0
  5  4  2  0  0  0  0
  6  7  2  0  0  0  0
  6  5  1  0  0  0  0
  7  2  1  0  0  0  0
  8 10  2  0  0  0  0
  8  5  1  0  0  0  0
  9  8  2  0  0  0  0
 11  1  1  6  0  0  0
 11 16  1  0  0  0  0
 13 11  1  0  0  0  0
 13 12  1  0  0  0  0
 14 13  1  0  0  0  0
 15 13  1  0  0  0  0
 16 17  1  0  0  0  0
 16 19  1  0  0  0  0
 18 16  1  0  0  0  0
M  END
>  <MODEL>
4

>  <REMARK>
  Name = ZINC63025192
                            x       y       z     vdW  Elec       q    Type
                         _______ _______ _______ _____ _____    ______ ____

>  <TORSDO>
F 5

>  <minimizedAffinity>
-6.2893645297631302

$$$$
ZINC63025192
 OpenBabel10211215273D

 19 19  0  0  1  0  0  0  0  0999 V2000
   47.7220   50.2690   17.1660 C   0  0  0  0  0  0  0  0  0  0  0  0
   48.9930   50.2350   17.9730 C   0  0  0  0  0  0  0  0  0  0  0  0
   49.1220   49.3270   19.0070 C   0  0  0  0  0  0  0  0  0  0  0  0
   50.2960   49.3040   19.7430 C   0  0  0  0  0  0  0  0  0  0  0  0
   51.3020   50.1990   19.4100 C   0  0  0  0  0  0  0  0  0  0  0  0
   51.1010   51.0770   18.3630 C   0  0  0  0  0  0  0  0  0  0  0  0
   49.9730   51.0680   17.6810 N   0  0  0  0  0  0  0  0  0  0  0  0
   52.5740   50.2120   20.1670 N   0  0  0  0  0  0  0  0  0  0  0  0
   53.4410   49.4110   19.9060 O   0  0  0  0  0  0  0  0  0  0  0  0
   52.7450   51.0250   21.0460 O   0  0  0  0  0  0  0  0  0  0  0  0
   47.8990   49.4280   15.9000 C   0  0  2  0  0  0  0  0  0  0  0  0
   45.6190   48.7740   16.6830 C   0  0  0  0  0  0  0  0  0  0  0  0
   46.8310   48.3330   15.8610 C   0  0  0  0  0  0  0  0  0  0  0  0
   46.4040   48.0890   14.4120 C   0  0  0  0  0  0  0  0  0  0  0  0
   47.4030   47.0400   16.4480 C   0  0  0  0  0  0  0  0  0  0  0  0
   49.2320   48.8100   15.9060 N   0  0  0  0  0  0  0  0  0  0  0  0
   49.9300   49.5170   16.0830 H   0  0  0  0  0  0  0  0  0  0  0  0
   49.4100   48.3820   15.0100 H   0  0  0  0  0  0  0  0  0  0  0  0
   49.2750   48.1070   16.6290 H   0  0  0  0  0  0  0  0  0  0  0  0
  1  2  1  0  0  0  0
  2  3  1  0  0  0  0
  3  4  2  0  0  0  0
  5  4  1  0  0  0  0
  5  8  1  0  0  0  0
  6  5  2  0  0  0  0
  7  2  2  0  0  0  0
  7  6  1  0  0  0  0
  8 10  2  0  0  0  0
  9  8  2  0  0  0  0
 11 13  1  1  0  0  0
 11 16  1  0  0  0  0
 11  1  1  0  0  0  0
 13 15  1  0  0  0  0
 13 12  1  0  0  0  0
 14 13  1  0  0  0  0
 16 17  1  0  0  0  0
 16 19  1  0  0  0  0
 18 16  1  0  0  0  0
M  END
>  <MODEL>
5

>  <REMARK>
  Name = ZINC63025192
                            x       y       z     vdW  Elec       q    Type
                         _______ _______ _______ _____ _____    ______ ____

>  <TORSDO>
F 5

>  <minimizedAffinity>
-6.2684781839998278

$$$$
ZINC63025192
 OpenBabel10211215273D

 19 19  0  0  1  0  0  0  0  0999 V2000
   51.9760   55.6450   20.8280 C   0  0  0  0  0  0  0  0  0  0  0  0
   52.0670   54.1590   20.5980 C   0  0  0  0  0  0  0  0  0  0  0  0
   52.4210   53.6810   19.3500 C   0  0  0  0  0  0  0  0  0  0  0  0
   52.5030   52.3120   19.1490 C   0  0  0  0  0  0  0  0  0  0  0  0
   52.2240   51.4700   20.2160 C   0  0  0  0  0  0  0  0  0  0  0  0
   51.8770   52.0210   21.4350 C   0  0  0  0  0  0  0  0  0  0  0  0
   51.8150   53.3280   21.5910 N   0  0  0  0  0  0  0  0  0  0  0  0
   52.2980   50.0020   20.0500 N   0  0  0  0  0  0  0  0  0  0  0  0
   51.2820   49.3460   20.0180 O   0  0  0  0  0  0  0  0  0  0  0  0
   53.3730   49.4580   19.9470 O   0  0  0  0  0  0  0  0  0  0  0  0
   50.7350   55.9560   21.6670 C   0  0  2  0  0  0  0  0  0  0  0  0
   50.4070   57.3670   19.6320 C   0  0  0  0  0  0  0  0  0  0  0  0
   49.7000   56.6760   20.8000 C   0  0  0  0  0  0  0  0  0  0  0  0
   48.6940   55.6600   20.2580 C   0  0  0  0  0  0  0  0  0  0  0  0
   48.9650   57.7210   21.6430 C   0  0  0  0  0  0  0  0  0  0  0  0
   51.1110   56.8170   22.7960 N   0  0  0  0  0  0  0  0  0  0  0  0
   51.8740   57.4180   22.5220 H   0  0  0  0  0  0  0  0  0  0  0  0
   51.3980   56.2450   23.5760 H   0  0  0  0  0  0  0  0  0  0  0  0
   50.3190   57.3820   23.0680 H   0  0  0  0  0  0  0  0  0  0  0  0
  1 11  1  0  0  0  0
  2  1  1  0  0  0  0
  2  7  2  0  0  0  0
  3  2  1  0  0  0  0
  4  3  2  0  0  0  0
  4  5  1  0  0  0  0
  5  6  2  0  0  0  0
  6  7  1  0  0  0  0
  8  5  1  0  0  0  0
  9  8  2  0  0  0  0
 10  8  2  0  0  0  0
 11 13  1  6  0  0  0
 11 16  1  0  0  0  0
 12 13  1  0  0  0  0
 13 15  1  0  0  0  0
 14 13  1  0  0  0  0
 16 19  1  0  0  0  0
 16 18  1  0  0  0  0
 17 16  1  0  0  0  0
M  END
>  <MODEL>
6

>  <REMARK>
  Name = ZINC63025192
                            x       y       z     vdW  Elec       q    Type
                         _______ _______ _______ _____ _____    ______ ____

>  <TORSDO>
F 5

>  <minimizedAffinity>
-6.0995527770826063

$$$$
ZINC63025192
 OpenBabel10211215273D

 19 19  0  0  1  0  0  0  0  0999 V2000
   49.0180   53.1420   18.0570 C   0  0  0  0  0  0  0  0  0  0  0  0
   49.9390   53.9520   18.9320 C   0  0  0  0  0  0  0  0  0  0  0  0
   49.4280   54.6170   20.0310 C   0  0  0  0  0  0  0  0  0  0  0  0
   50.2850   55.3580   20.8300 C   0  0  0  0  0  0  0  0  0  0  0  0
   51.6300   55.4020   20.4930 C   0  0  0  0  0  0  0  0  0  0  0  0
   52.0670   54.7110   19.3790 C   0  0  0  0  0  0  0  0  0  0  0  0
   51.2250   54.0120   18.6450 N   0  0  0  0  0  0  0  0  0  0  0  0
   52.5830   56.1810   21.3150 N   0  0  0  0  0  0  0  0  0  0  0  0
   52.4790   56.1850   22.5190 O   0  0  0  0  0  0  0  0  0  0  0  0
   53.4660   56.8110   20.7810 O   0  0  0  0  0  0  0  0  0  0  0  0
   49.6430   51.7720   17.7880 C   0  0  2  0  0  0  0  0  0  0  0  0
   48.3800   49.6430   18.1210 C   0  0  0  0  0  0  0  0  0  0  0  0
   48.5900   50.8380   17.1890 C   0  0  0  0  0  0  0  0  0  0  0  0
   47.2710   51.5960   17.0260 C   0  0  0  0  0  0  0  0  0  0  0  0
   49.0650   50.3430   15.8210 C   0  0  0  0  0  0  0  0  0  0  0  0
   50.1390   51.2050   19.0490 N   0  0  0  0  0  0  0  0  0  0  0  0
   51.1380   51.0740   18.9900 H   0  0  0  0  0  0  0  0  0  0  0  0
   49.6940   50.3150   19.2170 H   0  0  0  0  0  0  0  0  0  0  0  0
   49.9270   51.8350   19.8090 H   0  0  0  0  0  0  0  0  0  0  0  0
  1  2  1  0  0  0  0
  2  3  1  0  0  0  0
  3  4  2  0  0  0  0
  5  4  1  0  0  0  0
  5  8  1  0  0  0  0
  6  5  2  0  0  0  0
  7  2  2  0  0  0  0
  7  6  1  0  0  0  0
  8  9  2  0  0  0  0
 10  8  2  0  0  0  0
 11 13  1  1  0  0  0
 11  1  1  0  0  0  0
 11 16  1  0  0  0  0
 13 12  1  0  0  0  0
 14 13  1  0  0  0  0
 15 13  1  0  0  0  0
 16 18  1  0  0  0  0
 16 19  1  0  0  0  0
 17 16  1  0  0  0  0
M  END
>  <MODEL>
7

>  <REMARK>
  Name = ZINC63025192
                            x       y       z     vdW  Elec       q    Type
                         _______ _______ _______ _____ _____    ______ ____

>  <TORSDO>
F 5

>  <minimizedAffinity>
-6.078249084617001

$$$$
ZINC63025192
 OpenBabel10211215273D

 19 19  0  0  1  0  0  0  0  0999 V2000
   51.8350   51.8830   20.1730 C   0  0  0  0  0  0  0  0  0  0  0  0
   50.9130   50.8490   19.5830 C   0  0  0  0  0  0  0  0  0  0  0  0
   50.6740   49.6740   20.2710 C   0  0  0  0  0  0  0  0  0  0  0  0
   49.8230   48.7290   19.7180 C   0  0  0  0  0  0  0  0  0  0  0  0
   49.2410   49.0030   18.4890 C   0  0  0  0  0  0  0  0  0  0  0  0
   49.5280   50.1990   17.8610 C   0  0  0  0  0  0  0  0  0  0  0  0
   50.3380   51.0770   18.4170 N   0  0  0  0  0  0  0  0  0  0  0  0
   48.3260   48.0250   17.8590 N   0  0  0  0  0  0  0  0  0  0  0  0
   48.7730   47.1330   17.1760 O   0  0  0  0  0  0  0  0  0  0  0  0
   47.1330   48.1180   18.0280 O   0  0  0  0  0  0  0  0  0  0  0  0
   51.0640   52.7370   21.1830 C   0  0  2  0  0  0  0  0  0  0  0  0
   52.0780   54.3770   19.5950 C   0  0  0  0  0  0  0  0  0  0  0  0
   51.0560   54.1950   20.7190 C   0  0  0  0  0  0  0  0  0  0  0  0
   49.6620   54.5580   20.2040 C   0  0  0  0  0  0  0  0  0  0  0  0
   51.4200   55.1060   21.8930 C   0  0  0  0  0  0  0  0  0  0  0  0
   51.7140   52.6450   22.4980 N   0  0  0  0  0  0  0  0  0  0  0  0
   51.8970   51.6780   22.7160 H   0  0  0  0  0  0  0  0  0  0  0  0
   51.1070   53.0390   23.2010 H   0  0  0  0  0  0  0  0  0  0  0  0
   52.5840   53.1570   22.4800 H   0  0  0  0  0  0  0  0  0  0  0  0
  2  1  1  0  0  0  0
  2  3  2  0  0  0  0
  4  3  1  0  0  0  0
  5  4  2  0  0  0  0
  6  7  2  0  0  0  0
  6  5  1  0  0  0  0
  7  2  1  0  0  0  0
  8 10  2  0  0  0  0
  8  5  1  0  0  0  0
  9  8  2  0  0  0  0
 11  1  1  6  0  0  0
 11 16  1  0  0  0  0
 12 13  1  0  0  0  0
 13 11  1  0  0  0  0
 13 15  1  0  0  0  0
 14 13  1  0  0  0  0
 16 17  1  0  0  0  0
 16 18  1  0  0  0  0
 19 16  1  0  0  0  0
M  END
>  <MODEL>
8

>  <REMARK>
  Name = ZINC63025192
                            x       y       z     vdW  Elec       q    Type
                         _______ _______ _______ _____ _____    ______ ____

>  <TORSDO>
F 5

>  <minimizedAffinity>
-5.8202719528502467

$$$$
ZINC63025192
 OpenBabel10211215273D

 19 19  0  0  1  0  0  0  0  0999 V2000
   51.3290   53.0160   20.5160 C   0  0  0  0  0  0  0  0  0  0  0  0
   50.6540   54.3440   20.7370 C   0  0  0  0  0  0  0  0  0  0  0  0
   51.2390   55.2780   21.5730 C   0  0  0  0  0  0  0  0  0  0  0  0
   50.6090   56.4970   21.7680 C   0  0  0  0  0  0  0  0  0  0  0  0
   49.4100   56.7340   21.1130 C   0  0  0  0  0  0  0  0  0  0  0  0
   48.8860   55.7530   20.2930 C   0  0  0  0  0  0  0  0  0  0  0  0
   49.5140   54.6060   20.1260 N   0  0  0  0  0  0  0  0  0  0  0  0
   48.7010   58.0210   21.2900 N   0  0  0  0  0  0  0  0  0  0  0  0
   47.9570   58.4250   20.4270 O   0  0  0  0  0  0  0  0  0  0  0  0
   48.8640   58.6670   22.2990 O   0  0  0  0  0  0  0  0  0  0  0  0
   50.5520   52.2170   19.4680 C   0  0  2  0  0  0  0  0  0  0  0  0
   52.3380   50.5550   18.9320 C   0  0  0  0  0  0  0  0  0  0  0  0
   50.9510   50.7420   19.5510 C   0  0  0  0  0  0  0  0  0  0  0  0
   50.9820   50.3040   21.0160 C   0  0  0  0  0  0  0  0  0  0  0  0
   49.9320   49.8930   18.7870 C   0  0  0  0  0  0  0  0  0  0  0  0
   50.8640   52.7340   18.1290 N   0  0  0  0  0  0  0  0  0  0  0  0
   51.5380   52.1300   17.6830 H   0  0  0  0  0  0  0  0  0  0  0  0
   51.2460   53.6640   18.2070 H   0  0  0  0  0  0  0  0  0  0  0  0
   50.0210   52.7630   17.5740 H   0  0  0  0  0  0  0  0  0  0  0  0
  1  2  1  0  0  0  0
  2  3  2  0  0  0  0
  3  4  1  0  0  0  0
  5  8  1  0  0  0  0
  5  4  2  0  0  0  0
  6  5  1  0  0  0  0
  7  6  2  0  0  0  0
  7  2  1  0  0  0  0
  8 10  2  0  0  0  0
  9  8  2  0  0  0  0
 11 16  1  6  0  0  0
 11 13  1  0  0  0  0
 11  1  1  0  0  0  0
 12 13  1  0  0  0  0
 13 14  1  0  0  0  0
 15 13  1  0  0  0  0
 16 18  1  0  0  0  0
 17 16  1  0  0  0  0
 19 16  1  0  0  0  0
M  END
>  <MODEL>
9

>  <REMARK>
  Name = ZINC63025192
                            x       y       z     vdW  Elec       q    Type
                         _______ _______ _______ _____ _____    ______ ____

>  <TORSDO>
F 5

>  <minimizedAffinity>
-5.7459141514209984

$$$$
ZINC59015044
 OpenBabel10211215303D

 33 35  0  0  0  0  0  0  0  0999 V2000
   51.8550   51.3490   21.1130 C   0  0  0  0  0  0  0  0  0  0  0  0
   50.8540   50.5280   20.7820 N   0  0  0  0  0  0  0  0  0  0  0  0
   51.3320   49.4840   20.1390 C   0  0  0  0  0  0  0  0  0  0  0  0
   52.6720   49.6270   20.0490 N   0  0  0  0  0  0  0  0  0  0  0  0
   53.2950   49.0140   19.6290 H   0  0  0  0  0  0  0  0  0  0  0  0
   52.9850   50.8410   20.6800 N   0  0  0  0  0  0  0  0  0  0  0  0
   50.5940   48.4250   19.6430 N   0  0  0  0  0  0  0  0  0  0  0  0
   50.9180   47.5170   19.7440 H   0  0  0  0  0  0  0  0  0  0  0  0
   49.3750   48.6650   18.9940 N   0  0  0  0  0  0  0  0  0  0  0  0
   49.0370   47.9510   17.9640 C   0  0  0  0  0  0  0  0  0  0  0  0
   47.7550   48.2040   17.2810 C   0  0  0  0  0  0  0  0  0  0  0  0
   47.7040   48.2680   15.8860 C   0  0  0  0  0  0  0  0  0  0  0  0
   46.5010   48.5040   15.2530 C   0  0  0  0  0  0  0  0  0  0  0  0
   45.3450   48.6770   15.9960 C   0  0  0  0  0  0  0  0  0  0  0  0
   45.3870   48.6150   17.3770 C   0  0  0  0  0  0  0  0  0  0  0  0
   46.5830   48.3740   18.0250 C   0  0  0  0  0  0  0  0  0  0  0  0
   46.6210   48.3070   19.3750 F   0  0  0  0  0  0  0  0  0  0  0  0
   51.6850   52.8720   21.9840 S   0  0  0  0  0  0  0  0  0  0  0  0
   52.1340   54.1310   20.7580 C   0  0  0  0  0  0  0  0  0  0  0  0
   49.9820   53.7730   19.5900 N   0  0  0  0  0  0  0  0  0  0  0  0
   49.5350   53.8730   20.4440 H   0  0  0  0  0  0  0  0  0  0  0  0
   51.3190   53.9270   19.5060 C   0  0  0  0  0  0  0  0  0  0  0  0
   51.8660   53.9020   18.4240 O   0  0  0  0  0  0  0  0  0  0  0  0
   48.6300   54.4890   17.7120 C   0  0  0  0  0  0  0  0  0  0  0  0
   47.9000   54.1810   16.5720 C   0  0  0  0  0  0  0  0  0  0  0  0
   47.7750   52.8660   16.1660 C   0  0  0  0  0  0  0  0  0  0  0  0
   48.3750   51.8540   16.8920 C   0  0  0  0  0  0  0  0  0  0  0  0
   49.1040   52.1510   18.0290 C   0  0  0  0  0  0  0  0  0  0  0  0
   49.2400   53.4680   18.4410 C   0  0  0  0  0  0  0  0  0  0  0  0
   48.7910   56.1650   18.2310 S   0  0  0  0  0  0  0  0  0  0  0  0
   47.8970   56.2250   19.8080 C   0  0  0  0  0  0  0  0  0  0  0  0
   48.4510   58.1020   21.2670 C   0  0  0  0  0  0  0  0  0  0  0  0
   48.7550   56.8990   20.8470 C   0  0  0  0  0  0  0  0  0  0  0  0
  1 18  1  0  0  0  0
  2  1  1  0  0  0  0
  3  2  2  0  0  0  0
  4  3  1  0  0  0  0
  4  6  1  0  0  0  0
  5  4  1  0  0  0  0
  6  1  2  0  0  0  0
  7  8  1  0  0  0  0
  7  3  1  0  0  0  0
  9  7  1  0  0  0  0
 10  9  2  0  0  0  0
 11 10  1  0  0  0  0
 11 16  2  0  0  0  0
 12 11  1  0  0  0  0
 13 12  2  0  0  0  0
 13 14  1  0  0  0  0
 14 15  2  0  0  0  0
 15 16  1  0  0  0  0
 16 17  1  0  0  0  0
 19 18  1  0  0  0  0
 20 21  1  0  0  0  0
 22 20  1  0  0  0  0
 22 19  1  0  0  0  0
 23 22  2  0  0  0  0
 24 30  1  0  0  0  0
 24 29  2  0  0  0  0
 25 24  1  0  0  0  0
 26 25  2  0  0  0  0
 26 27  1  0  0  0  0
 27 28  2  0  0  0  0
 28 29  1  0  0  0  0
 29 20  1  0  0  0  0
 30 31  1  0  0  0  0
 31 33  1  0  0  0  0
 33 32  2  0  0  0  0
M  END
>  <MODEL>
1

>  <REMARK>
  Name = ZINC59015044
                            x       y       z     vdW  Elec       q    Type
                         _______ _______ _______ _____ _____    ______ ____

>  <TORSDO>
F 10

>  <minimizedAffinity>
-9.2248938057147161

$$$$
ZINC59015044
 OpenBabel10211215303D

 33 35  0  0  0  0  0  0  0  0999 V2000
   51.9570   51.2410   18.0150 C   0  0  0  0  0  0  0  0  0  0  0  0
   50.6960   51.0950   17.5970 N   0  0  0  0  0  0  0  0  0  0  0  0
   50.6890   50.5650   16.3920 C   0  0  0  0  0  0  0  0  0  0  0  0
   51.9700   50.3610   16.0170 N   0  0  0  0  0  0  0  0  0  0  0  0
   52.2770   49.9820   15.1790 H   0  0  0  0  0  0  0  0  0  0  0  0
   52.7710   50.8110   17.0790 N   0  0  0  0  0  0  0  0  0  0  0  0
   49.5660   50.2670   15.6410 N   0  0  0  0  0  0  0  0  0  0  0  0
   49.4590   50.6480   14.7560 H   0  0  0  0  0  0  0  0  0  0  0  0
   48.5830   49.4140   16.1590 N   0  0  0  0  0  0  0  0  0  0  0  0
   47.5970   49.9020   16.8470 C   0  0  0  0  0  0  0  0  0  0  0  0
   46.5630   49.0040   17.3930 C   0  0  0  0  0  0  0  0  0  0  0  0
   45.4210   48.7110   16.6430 C   0  0  0  0  0  0  0  0  0  0  0  0
   44.4580   47.8690   17.1600 C   0  0  0  0  0  0  0  0  0  0  0  0
   44.6200   47.3140   18.4180 C   0  0  0  0  0  0  0  0  0  0  0  0
   45.7470   47.5990   19.1670 C   0  0  0  0  0  0  0  0  0  0  0  0
   46.7230   48.4360   18.6610 C   0  0  0  0  0  0  0  0  0  0  0  0
   47.8270   48.7080   19.3920 F   0  0  0  0  0  0  0  0  0  0  0  0
   52.4500   51.9110   19.5690 S   0  0  0  0  0  0  0  0  0  0  0  0
   52.6440   53.6850   19.2420 C   0  0  0  0  0  0  0  0  0  0  0  0
   51.2360   55.7140   19.3750 N   0  0  0  0  0  0  0  0  0  0  0  0
   51.8590   56.1510   18.7750 H   0  0  0  0  0  0  0  0  0  0  0  0
   51.4120   54.4190   19.7050 C   0  0  0  0  0  0  0  0  0  0  0  0
   50.5800   53.8450   20.3750 O   0  0  0  0  0  0  0  0  0  0  0  0
   50.2730   57.0820   21.1280 C   0  0  0  0  0  0  0  0  0  0  0  0
   49.1970   57.7920   21.6410 C   0  0  0  0  0  0  0  0  0  0  0  0
   48.0080   57.8460   20.9400 C   0  0  0  0  0  0  0  0  0  0  0  0
   47.8850   57.1950   19.7260 C   0  0  0  0  0  0  0  0  0  0  0  0
   48.9520   56.4840   19.2080 C   0  0  0  0  0  0  0  0  0  0  0  0
   50.1510   56.4290   19.9010 C   0  0  0  0  0  0  0  0  0  0  0  0
   51.7910   57.0110   22.0200 S   0  0  0  0  0  0  0  0  0  0  0  0
   52.5630   58.6210   21.7030 C   0  0  0  0  0  0  0  0  0  0  0  0
   54.1710   57.2210   20.5130 C   0  0  0  0  0  0  0  0  0  0  0  0
   53.8100   58.4270   20.8800 C   0  0  0  0  0  0  0  0  0  0  0  0
  1 18  1  0  0  0  0
  2  1  1  0  0  0  0
  3  2  2  0  0  0  0
  4  3  1  0  0  0  0
  4  6  1  0  0  0  0
  5  4  1  0  0  0  0
  6  1  2  0  0  0  0
  7  9  1  0  0  0  0
  7  3  1  0  0  0  0
  8  7  1  0  0  0  0
  9 10  2  0  0  0  0
 10 11  1  0  0  0  0
 11 16  2  0  0  0  0
 12 13  2  0  0  0  0
 12 11  1  0  0  0  0
 13 14  1  0  0  0  0
 14 15  2  0  0  0  0
 16 15  1  0  0  0  0
 16 17  1  0  0  0  0
 19 18  1  0  0  0  0
 19 22  1  0  0  0  0
 20 22  1  0  0  0  0
 20 29  1  0  0  0  0
 21 20  1  0  0  0  0
 22 23  2  0  0  0  0
 24 25  1  0  0  0  0
 24 30  1  0  0  0  0
 26 25  2  0  0  0  0
 27 26  1  0  0  0  0
 28 27  2  0  0  0  0
 28 29  1  0  0  0  0
 29 24  2  0  0  0  0
 31 30  1  0  0  0  0
 32 33  2  0  0  0  0
 33 31  1  0  0  0  0
M  END
>  <MODEL>
2

>  <REMARK>
  Name = ZINC59015044
                            x       y       z     vdW  Elec       q    Type
                         _______ _______ _______ _____ _____    ______ ____

>  <TORSDO>
F 10

>  <minimizedAffinity>
-8.7256250142384779

$$$$
ZINC59015044
 OpenBabel10211215303D

 33 35  0  0  0  0  0  0  0  0999 V2000
   52.2090   51.2150   19.7760 C   0  0  0  0  0  0  0  0  0  0  0  0
   51.0400   50.6040   19.5580 N   0  0  0  0  0  0  0  0  0  0  0  0
   51.1990   49.3010   19.6470 C   0  0  0  0  0  0  0  0  0  0  0  0
   52.4970   49.0560   19.9280 N   0  0  0  0  0  0  0  0  0  0  0  0
   52.9120   48.1880   20.0510 H   0  0  0  0  0  0  0  0  0  0  0  0
   53.1300   50.3070   20.0000 N   0  0  0  0  0  0  0  0  0  0  0  0
   50.2110   48.3470   19.4820 N   0  0  0  0  0  0  0  0  0  0  0  0
   50.2690   47.5010   19.9520 H   0  0  0  0  0  0  0  0  0  0  0  0
   49.1240   48.6050   18.6350 N   0  0  0  0  0  0  0  0  0  0  0  0
   48.7280   47.6990   17.7950 C   0  0  0  0  0  0  0  0  0  0  0  0
   47.5850   47.9700   16.9030 C   0  0  0  0  0  0  0  0  0  0  0  0
   47.7770   48.0610   15.5230 C   0  0  0  0  0  0  0  0  0  0  0  0
   46.7030   48.3140   14.6950 C   0  0  0  0  0  0  0  0  0  0  0  0
   45.4360   48.4780   15.2280 C   0  0  0  0  0  0  0  0  0  0  0  0
   45.2360   48.3890   16.5930 C   0  0  0  0  0  0  0  0  0  0  0  0
   46.3010   48.1310   17.4350 C   0  0  0  0  0  0  0  0  0  0  0  0
   46.1030   48.0370   18.7690 F   0  0  0  0  0  0  0  0  0  0  0  0
   52.4740   52.9570   19.7560 S   0  0  0  0  0  0  0  0  0  0  0  0
   51.2880   53.5690   18.5280 C   0  0  0  0  0  0  0  0  0  0  0  0
   50.4170   55.8060   19.1240 N   0  0  0  0  0  0  0  0  0  0  0  0
   51.1120   56.1920   18.5690 H   0  0  0  0  0  0  0  0  0  0  0  0
   50.2830   54.4670   19.2030 C   0  0  0  0  0  0  0  0  0  0  0  0
   49.3540   53.9850   19.8160 O   0  0  0  0  0  0  0  0  0  0  0  0
   49.9410   57.1440   21.0870 C   0  0  0  0  0  0  0  0  0  0  0  0
   49.0830   57.9730   21.7950 C   0  0  0  0  0  0  0  0  0  0  0  0
   47.8440   58.2910   21.2720 C   0  0  0  0  0  0  0  0  0  0  0  0
   47.4550   57.7870   20.0450 C   0  0  0  0  0  0  0  0  0  0  0  0
   48.3050   56.9600   19.3330 C   0  0  0  0  0  0  0  0  0  0  0  0
   49.5520   56.6400   19.8460 C   0  0  0  0  0  0  0  0  0  0  0  0
   51.5230   56.7370   21.7510 S   0  0  0  0  0  0  0  0  0  0  0  0
   52.4150   58.3160   21.7600 C   0  0  0  0  0  0  0  0  0  0  0  0
   54.4060   57.5340   20.5830 C   0  0  0  0  0  0  0  0  0  0  0  0
   53.8970   58.0550   21.6720 C   0  0  0  0  0  0  0  0  0  0  0  0
  1  6  2  0  0  0  0
  2  3  2  0  0  0  0
  2  1  1  0  0  0  0
  3  4  1  0  0  0  0
  4  6  1  0  0  0  0
  4  5  1  0  0  0  0
  7  3  1  0  0  0  0
  7  8  1  0  0  0  0
  9  7  1  0  0  0  0
 10  9  2  0  0  0  0
 11 16  1  0  0  0  0
 11 10  1  0  0  0  0
 12 11  2  0  0  0  0
 13 14  2  0  0  0  0
 13 12  1  0  0  0  0
 14 15  1  0  0  0  0
 15 16  2  0  0  0  0
 16 17  1  0  0  0  0
 18  1  1  0  0  0  0
 19 22  1  0  0  0  0
 19 18  1  0  0  0  0
 20 22  1  0  0  0  0
 20 29  1  0  0  0  0
 21 20  1  0  0  0  0
 22 23  2  0  0  0  0
 24 30  1  0  0  0  0
 24 25  2  0  0  0  0
 26 25  1  0  0  0  0
 27 26  2  0  0  0  0
 28 29  2  0  0  0  0
 28 27  1  0  0  0  0
 29 24  1  0  0  0  0
 30 31  1  0  0  0  0
 32 33  2  0  0  0  0
 33 31  1  0  0  0  0
M  END
>  <MODEL>
3

>  <REMARK>
  Name = ZINC59015044
                            x       y       z     vdW  Elec       q    Type
                         _______ _______ _______ _____ _____    ______ ____

>  <TORSDO>
F 10

>  <minimizedAffinity>
-8.668505501768168

$$$$
ZINC59015044
 OpenBabel10211215303D

 33 35  0  0  0  0  0  0  0  0999 V2000
   50.7530   49.9290   19.7740 C   0  0  0  0  0  0  0  0  0  0  0  0
   50.6770   51.1430   20.3290 N   0  0  0  0  0  0  0  0  0  0  0  0
   51.7810   51.3910   21.0030 C   0  0  0  0  0  0  0  0  0  0  0  0
   52.5920   50.3180   20.8840 N   0  0  0  0  0  0  0  0  0  0  0  0
   53.4750   50.2110   21.2730 H   0  0  0  0  0  0  0  0  0  0  0  0
   51.9040   49.3850   20.0920 N   0  0  0  0  0  0  0  0  0  0  0  0
   52.0610   52.5470   21.7070 N   0  0  0  0  0  0  0  0  0  0  0  0
   52.9070   52.6400   22.1720 H   0  0  0  0  0  0  0  0  0  0  0  0
   51.1220   53.5870   21.7490 N   0  0  0  0  0  0  0  0  0  0  0  0
   51.1870   54.5550   20.8870 C   0  0  0  0  0  0  0  0  0  0  0  0
   50.1990   55.6480   20.9320 C   0  0  0  0  0  0  0  0  0  0  0  0
   49.0440   55.5830   20.1490 C   0  0  0  0  0  0  0  0  0  0  0  0
   48.1230   56.6090   20.1960 C   0  0  0  0  0  0  0  0  0  0  0  0
   48.3410   57.7030   21.0160 C   0  0  0  0  0  0  0  0  0  0  0  0
   49.4820   57.7770   21.7940 C   0  0  0  0  0  0  0  0  0  0  0  0
   50.4110   56.7540   21.7620 C   0  0  0  0  0  0  0  0  0  0  0  0
   51.5220   56.8240   22.5280 F   0  0  0  0  0  0  0  0  0  0  0  0
   49.5050   49.1760   18.7830 S   0  0  0  0  0  0  0  0  0  0  0  0
   49.4850   50.1740   17.2690 C   0  0  0  0  0  0  0  0  0  0  0  0
   48.3130   48.7110   15.6550 N   0  0  0  0  0  0  0  0  0  0  0  0
   49.0780   48.1170   15.6820 H   0  0  0  0  0  0  0  0  0  0  0  0
   48.2810   49.8060   16.4400 C   0  0  0  0  0  0  0  0  0  0  0  0
   47.2830   50.4950   16.4810 O   0  0  0  0  0  0  0  0  0  0  0  0
   46.2350   47.5510   15.1990 C   0  0  0  0  0  0  0  0  0  0  0  0
   45.1730   47.2840   14.3480 C   0  0  0  0  0  0  0  0  0  0  0  0
   45.1140   47.8860   13.1060 C   0  0  0  0  0  0  0  0  0  0  0  0
   46.1120   48.7550   12.7060 C   0  0  0  0  0  0  0  0  0  0  0  0
   47.1750   49.0270   13.5470 C   0  0  0  0  0  0  0  0  0  0  0  0
   47.2400   48.4330   14.7980 C   0  0  0  0  0  0  0  0  0  0  0  0
   46.3120   46.7860   16.7850 S   0  0  0  0  0  0  0  0  0  0  0  0
   44.9870   47.5900   17.7260 C   0  0  0  0  0  0  0  0  0  0  0  0
   44.3560   46.8250   19.9570 C   0  0  0  0  0  0  0  0  0  0  0  0
   45.2450   47.4220   19.2010 C   0  0  0  0  0  0  0  0  0  0  0  0
  1  6  2  0  0  0  0
  1  2  1  0  0  0  0
  2  3  2  0  0  0  0
  3  7  1  0  0  0  0
  4  3  1  0  0  0  0
  4  5  1  0  0  0  0
  6  4  1  0  0  0  0
  7  9  1  0  0  0  0
  7  8  1  0  0  0  0
 10 11  1  0  0  0  0
 10  9  2  0  0  0  0
 11 16  2  0  0  0  0
 12 13  2  0  0  0  0
 12 11  1  0  0  0  0
 13 14  1  0  0  0  0
 14 15  2  0  0  0  0
 16 15  1  0  0  0  0
 16 17  1  0  0  0  0
 18  1  1  0  0  0  0
 19 18  1  0  0  0  0
 20 21  1  0  0  0  0
 20 22  1  0  0  0  0
 22 23  2  0  0  0  0
 22 19  1  0  0  0  0
 24 30  1  0  0  0  0
 25 24  2  0  0  0  0
 26 25  1  0  0  0  0
 27 26  2  0  0  0  0
 27 28  1  0  0  0  0
 28 29  2  0  0  0  0
 29 24  1  0  0  0  0
 29 20  1  0  0  0  0
 30 31  1  0  0  0  0
 31 33  1  0  0  0  0
 33 32  2  0  0  0  0
M  END
>  <MODEL>
4

>  <REMARK>
  Name = ZINC59015044
                            x       y       z     vdW  Elec       q    Type
                         _______ _______ _______ _____ _____    ______ ____

>  <TORSDO>
F 10

>  <minimizedAffinity>
-8.6424740421715889

$$$$
ZINC59015044
 OpenBabel10211215303D

 33 35  0  0  0  0  0  0  0  0999 V2000
   51.4500   51.1820   18.1700 C   0  0  0  0  0  0  0  0  0  0  0  0
   50.7950   51.6500   19.2370 N   0  0  0  0  0  0  0  0  0  0  0  0
   51.6570   52.1190   20.1150 C   0  0  0  0  0  0  0  0  0  0  0  0
   52.8990   51.9540   19.6100 N   0  0  0  0  0  0  0  0  0  0  0  0
   53.7350   52.2050   20.0320 H   0  0  0  0  0  0  0  0  0  0  0  0
   52.7400   51.3420   18.3570 N   0  0  0  0  0  0  0  0  0  0  0  0
   51.3470   52.6830   21.3390 N   0  0  0  0  0  0  0  0  0  0  0  0
   51.7570   52.3410   22.1490 H   0  0  0  0  0  0  0  0  0  0  0  0
   50.4390   53.7480   21.4090 N   0  0  0  0  0  0  0  0  0  0  0  0
   50.6790   54.8480   20.7640 C   0  0  0  0  0  0  0  0  0  0  0  0
   49.7250   55.9700   20.8380 C   0  0  0  0  0  0  0  0  0  0  0  0
   48.5710   55.9620   20.0510 C   0  0  0  0  0  0  0  0  0  0  0  0
   47.6810   57.0140   20.1260 C   0  0  0  0  0  0  0  0  0  0  0  0
   47.9290   58.0760   20.9780 C   0  0  0  0  0  0  0  0  0  0  0  0
   49.0690   58.0920   21.7610 C   0  0  0  0  0  0  0  0  0  0  0  0
   49.9670   57.0430   21.7010 C   0  0  0  0  0  0  0  0  0  0  0  0
   51.0770   57.0570   22.4720 F   0  0  0  0  0  0  0  0  0  0  0  0
   50.7050   50.4600   16.7460 S   0  0  0  0  0  0  0  0  0  0  0  0
   49.2130   51.4560   16.4780 C   0  0  0  0  0  0  0  0  0  0  0  0
   48.0690   49.3310   17.0220 N   0  0  0  0  0  0  0  0  0  0  0  0
   48.9160   48.8770   16.8960 H   0  0  0  0  0  0  0  0  0  0  0  0
   48.0010   50.6730   16.9140 C   0  0  0  0  0  0  0  0  0  0  0  0
   46.9650   51.2510   17.1700 O   0  0  0  0  0  0  0  0  0  0  0  0
   46.1170   48.1020   16.2800 C   0  0  0  0  0  0  0  0  0  0  0  0
   44.9770   47.3680   16.5760 C   0  0  0  0  0  0  0  0  0  0  0  0
   44.6320   47.1300   17.8930 C   0  0  0  0  0  0  0  0  0  0  0  0
   45.4190   47.6210   18.9180 C   0  0  0  0  0  0  0  0  0  0  0  0
   46.5560   48.3530   18.6320 C   0  0  0  0  0  0  0  0  0  0  0  0
   46.9140   48.5930   17.3140 C   0  0  0  0  0  0  0  0  0  0  0  0
   46.5590   48.4080   14.6020 S   0  0  0  0  0  0  0  0  0  0  0  0
   45.4590   47.3230   13.6520 C   0  0  0  0  0  0  0  0  0  0  0  0
   45.6970   48.6490   11.6160 C   0  0  0  0  0  0  0  0  0  0  0  0
   44.8910   48.0830   12.4820 C   0  0  0  0  0  0  0  0  0  0  0  0
  1  6  2  0  0  0  0
  1  2  1  0  0  0  0
  2  3  2  0  0  0  0
  3  7  1  0  0  0  0
  4  5  1  0  0  0  0
  4  3  1  0  0  0  0
  6  4  1  0  0  0  0
  7  9  1  0  0  0  0
  7  8  1  0  0  0  0
 10 11  1  0  0  0  0
 10  9  2  0  0  0  0
 11 16  2  0  0  0  0
 12 13  2  0  0  0  0
 12 11  1  0  0  0  0
 13 14  1  0  0  0  0
 14 15  2  0  0  0  0
 16 15  1  0  0  0  0
 16 17  1  0  0  0  0
 18  1  1  0  0  0  0
 19 18  1  0  0  0  0
 19 22  1  0  0  0  0
 20 29  1  0  0  0  0
 21 20  1  0  0  0  0
 22 20  1  0  0  0  0
 22 23  2  0  0  0  0
 24 25  2  0  0  0  0
 24 29  1  0  0  0  0
 25 26  1  0  0  0  0
 26 27  2  0  0  0  0
 28 27  1  0  0  0  0
 29 28  2  0  0  0  0
 30 24  1  0  0  0  0
 31 30  1  0  0  0  0
 32 33  2  0  0  0  0
 33 31  1  0  0  0  0
M  END
>  <MODEL>
5

>  <REMARK>
  Name = ZINC59015044
                            x       y       z     vdW  Elec       q    Type
                         _______ _______ _______ _____ _____    ______ ____

>  <TORSDO>
F 10

>  <minimizedAffinity>
-8.1097507421982407

$$$$
ZINC59015044
 OpenBabel10211215303D

 33 35  0  0  0  0  0  0  0  0999 V2000
   51.8500   54.6310   21.8610 C   0  0  0  0  0  0  0  0  0  0  0  0
   51.8250   54.0350   20.6640 N   0  0  0  0  0  0  0  0  0  0  0  0
   51.6990   52.7340   20.8210 C   0  0  0  0  0  0  0  0  0  0  0  0
   51.6410   52.4760   22.1450 N   0  0  0  0  0  0  0  0  0  0  0  0
   51.5490   51.6060   22.5640 H   0  0  0  0  0  0  0  0  0  0  0  0
   51.7470   53.7150   22.7960 N   0  0  0  0  0  0  0  0  0  0  0  0
   51.6370   51.7950   19.8070 N   0  0  0  0  0  0  0  0  0  0  0  0
   52.4130   51.6310   19.2490 H   0  0  0  0  0  0  0  0  0  0  0  0
   50.4520   51.0810   19.5870 N   0  0  0  0  0  0  0  0  0  0  0  0
   49.8910   51.0990   18.4170 C   0  0  0  0  0  0  0  0  0  0  0  0
   48.6440   50.3470   18.1850 C   0  0  0  0  0  0  0  0  0  0  0  0
   48.4320   49.1250   18.8270 C   0  0  0  0  0  0  0  0  0  0  0  0
   47.2620   48.4270   18.6060 C   0  0  0  0  0  0  0  0  0  0  0  0
   46.2990   48.9350   17.7520 C   0  0  0  0  0  0  0  0  0  0  0  0
   46.5000   50.1450   17.1120 C   0  0  0  0  0  0  0  0  0  0  0  0
   47.6640   50.8580   17.3270 C   0  0  0  0  0  0  0  0  0  0  0  0
   47.8560   52.0430   16.7070 F   0  0  0  0  0  0  0  0  0  0  0  0
   52.0050   56.3640   22.1390 S   0  0  0  0  0  0  0  0  0  0  0  0
   50.2990   56.9750   22.0700 C   0  0  0  0  0  0  0  0  0  0  0  0
   48.6450   56.9460   20.2300 N   0  0  0  0  0  0  0  0  0  0  0  0
   47.9720   56.6890   20.8790 H   0  0  0  0  0  0  0  0  0  0  0  0
   49.9050   57.2050   20.6330 C   0  0  0  0  0  0  0  0  0  0  0  0
   50.7230   57.6230   19.8400 O   0  0  0  0  0  0  0  0  0  0  0  0
   47.6770   58.1960   18.3940 C   0  0  0  0  0  0  0  0  0  0  0  0
   47.3520   58.2930   17.0490 C   0  0  0  0  0  0  0  0  0  0  0  0
   47.6490   57.2530   16.1900 C   0  0  0  0  0  0  0  0  0  0  0  0
   48.2710   56.1130   16.6650 C   0  0  0  0  0  0  0  0  0  0  0  0
   48.5980   56.0070   18.0040 C   0  0  0  0  0  0  0  0  0  0  0  0
   48.3100   57.0480   18.8740 C   0  0  0  0  0  0  0  0  0  0  0  0
   47.3000   59.5210   19.4930 S   0  0  0  0  0  0  0  0  0  0  0  0
   47.3350   60.9930   18.4340 C   0  0  0  0  0  0  0  0  0  0  0  0
   45.0210   61.3460   19.1280 C   0  0  0  0  0  0  0  0  0  0  0  0
   46.1630   61.8790   18.7660 C   0  0  0  0  0  0  0  0  0  0  0  0
  1 18  1  0  0  0  0
  1  6  2  0  0  0  0
  2  3  2  0  0  0  0
  2  1  1  0  0  0  0
  3  4  1  0  0  0  0
  4  5  1  0  0  0  0
  4  6  1  0  0  0  0
  7  3  1  0  0  0  0
  8  7  1  0  0  0  0
  9  7  1  0  0  0  0
 10  9  2  0  0  0  0
 11 10  1  0  0  0  0
 11 12  2  0  0  0  0
 13 12  1  0  0  0  0
 14 13  2  0  0  0  0
 15 16  2  0  0  0  0
 15 14  1  0  0  0  0
 16 11  1  0  0  0  0
 17 16  1  0  0  0  0
 19 18  1  0  0  0  0
 20 22  1  0  0  0  0
 20 21  1  0  0  0  0
 22 19  1  0  0  0  0
 23 22  2  0  0  0  0
 24 29  1  0  0  0  0
 24 30  1  0  0  0  0
 25 24  2  0  0  0  0
 26 27  2  0  0  0  0
 26 25  1  0  0  0  0
 27 28  1  0  0  0  0
 28 29  2  0  0  0  0
 29 20  1  0  0  0  0
 31 33  1  0  0  0  0
 31 30  1  0  0  0  0
 33 32  2  0  0  0  0
M  END
>  <MODEL>
6

>  <REMARK>
  Name = ZINC59015044
                            x       y       z     vdW  Elec       q    Type
                         _______ _______ _______ _____ _____    ______ ____

>  <TORSDO>
F 10

>  <minimizedAffinity>
-8.0000279037931943

$$$$
ZINC59015044
 OpenBabel10211215303D

 33 35  0  0  0  0  0  0  0  0999 V2000
   51.5280   50.8630   19.1230 C   0  0  0  0  0  0  0  0  0  0  0  0
   51.4310   52.0430   19.7430 N   0  0  0  0  0  0  0  0  0  0  0  0
   51.9070   51.9410   20.9660 C   0  0  0  0  0  0  0  0  0  0  0  0
   52.3240   50.6700   21.1480 N   0  0  0  0  0  0  0  0  0  0  0  0
   52.7210   50.2970   21.9500 H   0  0  0  0  0  0  0  0  0  0  0  0
   52.0630   49.9910   19.9460 N   0  0  0  0  0  0  0  0  0  0  0  0
   51.9710   52.9580   21.9020 N   0  0  0  0  0  0  0  0  0  0  0  0
   52.6900   52.9750   22.5520 H   0  0  0  0  0  0  0  0  0  0  0  0
   50.9960   53.9640   21.9090 N   0  0  0  0  0  0  0  0  0  0  0  0
   51.0850   54.9610   21.0830 C   0  0  0  0  0  0  0  0  0  0  0  0
   50.0590   56.0200   21.0910 C   0  0  0  0  0  0  0  0  0  0  0  0
   50.2330   57.1590   21.8820 C   0  0  0  0  0  0  0  0  0  0  0  0
   49.2700   58.1460   21.8840 C   0  0  0  0  0  0  0  0  0  0  0  0
   48.1320   58.0120   21.1060 C   0  0  0  0  0  0  0  0  0  0  0  0
   47.9520   56.8880   20.3200 C   0  0  0  0  0  0  0  0  0  0  0  0
   48.9110   55.8930   20.3030 C   0  0  0  0  0  0  0  0  0  0  0  0
   48.7370   54.7980   19.5290 F   0  0  0  0  0  0  0  0  0  0  0  0
   51.0150   50.5280   17.4720 S   0  0  0  0  0  0  0  0  0  0  0  0
   49.6810   51.7210   17.1750 C   0  0  0  0  0  0  0  0  0  0  0  0
   48.6850   49.7860   15.9980 N   0  0  0  0  0  0  0  0  0  0  0  0
   49.5190   49.3100   16.1360 H   0  0  0  0  0  0  0  0  0  0  0  0
   48.5250   51.0250   16.5030 C   0  0  0  0  0  0  0  0  0  0  0  0
   47.4500   51.5810   16.4170 O   0  0  0  0  0  0  0  0  0  0  0  0
   46.7040   48.3930   15.9260 C   0  0  0  0  0  0  0  0  0  0  0  0
   45.6760   47.8060   15.2030 C   0  0  0  0  0  0  0  0  0  0  0  0
   45.5920   48.0030   13.8380 C   0  0  0  0  0  0  0  0  0  0  0  0
   46.5310   48.7830   13.1880 C   0  0  0  0  0  0  0  0  0  0  0  0
   47.5590   49.3720   13.9010 C   0  0  0  0  0  0  0  0  0  0  0  0
   47.6480   49.1860   15.2720 C   0  0  0  0  0  0  0  0  0  0  0  0
   46.8130   48.1450   17.6680 S   0  0  0  0  0  0  0  0  0  0  0  0
   45.0840   48.0180   18.2020 C   0  0  0  0  0  0  0  0  0  0  0  0
   43.9770   47.0680   20.1600 C   0  0  0  0  0  0  0  0  0  0  0  0
   44.9750   47.0060   19.3130 C   0  0  0  0  0  0  0  0  0  0  0  0
  1  2  1  0  0  0  0
  1  6  2  0  0  0  0
  2  3  2  0  0  0  0
  3  4  1  0  0  0  0
  3  7  1  0  0  0  0
  4  5  1  0  0  0  0
  6  4  1  0  0  0  0
  7  9  1  0  0  0  0
  7  8  1  0  0  0  0
 10 11  1  0  0  0  0
 10  9  2  0  0  0  0
 11 12  2  0  0  0  0
 12 13  1  0  0  0  0
 14 13  2  0  0  0  0
 15 14  1  0  0  0  0
 16 15  2  0  0  0  0
 16 11  1  0  0  0  0
 17 16  1  0  0  0  0
 18  1  1  0  0  0  0
 19 18  1  0  0  0  0
 20 21  1  0  0  0  0
 20 22  1  0  0  0  0
 22 19  1  0  0  0  0
 23 22  2  0  0  0  0
 24 30  1  0  0  0  0
 25 24  2  0  0  0  0
 26 25  1  0  0  0  0
 27 26  2  0  0  0  0
 27 28  1  0  0  0  0
 28 29  2  0  0  0  0
 29 24  1  0  0  0  0
 29 20  1  0  0  0  0
 30 31  1  0  0  0  0
 31 33  1  0  0  0  0
 33 32  2  0  0  0  0
M  END
>  <MODEL>
7

>  <REMARK>
  Name = ZINC59015044
                            x       y       z     vdW  Elec       q    Type
                         _______ _______ _______ _____ _____    ______ ____

>  <TORSDO>
F 10

>  <minimizedAffinity>
-7.9907497734282869

$$$$
ZINC59015044
 OpenBabel10211215303D

 33 35  0  0  0  0  0  0  0  0999 V2000
   51.6450   51.2740   20.3160 C   0  0  0  0  0  0  0  0  0  0  0  0
   51.2150   50.4730   19.3350 N   0  0  0  0  0  0  0  0  0  0  0  0
   50.6850   49.3850   19.8530 C   0  0  0  0  0  0  0  0  0  0  0  0
   50.7710   49.4780   21.1980 N   0  0  0  0  0  0  0  0  0  0  0  0
   50.4630   48.8250   21.8460 H   0  0  0  0  0  0  0  0  0  0  0  0
   51.4000   50.7020   21.4720 N   0  0  0  0  0  0  0  0  0  0  0  0
   50.1350   48.3320   19.1450 N   0  0  0  0  0  0  0  0  0  0  0  0
   50.5270   47.4470   19.2080 H   0  0  0  0  0  0  0  0  0  0  0  0
   49.0090   48.5430   18.3380 N   0  0  0  0  0  0  0  0  0  0  0  0
   48.5520   47.5800   17.5970 C   0  0  0  0  0  0  0  0  0  0  0  0
   47.3680   47.8020   16.7470 C   0  0  0  0  0  0  0  0  0  0  0  0
   47.5220   48.0780   15.3870 C   0  0  0  0  0  0  0  0  0  0  0  0
   46.4100   48.2840   14.5970 C   0  0  0  0  0  0  0  0  0  0  0  0
   45.1420   48.2180   15.1490 C   0  0  0  0  0  0  0  0  0  0  0  0
   44.9800   47.9460   16.4950 C   0  0  0  0  0  0  0  0  0  0  0  0
   46.0840   47.7320   17.2980 C   0  0  0  0  0  0  0  0  0  0  0  0
   45.9230   47.4600   18.6120 F   0  0  0  0  0  0  0  0  0  0  0  0
   52.4230   52.8390   20.0930 S   0  0  0  0  0  0  0  0  0  0  0  0
   51.4890   53.6060   18.7410 C   0  0  0  0  0  0  0  0  0  0  0  0
   50.5050   55.8480   19.1010 N   0  0  0  0  0  0  0  0  0  0  0  0
   51.1870   56.2090   18.5150 H   0  0  0  0  0  0  0  0  0  0  0  0
   50.4340   54.5180   19.3140 C   0  0  0  0  0  0  0  0  0  0  0  0
   49.5220   54.0550   19.9660 O   0  0  0  0  0  0  0  0  0  0  0  0
   48.4920   57.1930   19.0230 C   0  0  0  0  0  0  0  0  0  0  0  0
   47.5890   58.0380   19.6510 C   0  0  0  0  0  0  0  0  0  0  0  0
   47.7840   58.4000   20.9700 C   0  0  0  0  0  0  0  0  0  0  0  0
   48.8780   57.9230   21.6680 C   0  0  0  0  0  0  0  0  0  0  0  0
   49.7830   57.0800   21.0500 C   0  0  0  0  0  0  0  0  0  0  0  0
   49.5920   56.7060   19.7280 C   0  0  0  0  0  0  0  0  0  0  0  0
   48.2450   56.7290   17.3400 S   0  0  0  0  0  0  0  0  0  0  0  0
   47.1440   58.0140   16.6870 C   0  0  0  0  0  0  0  0  0  0  0  0
   46.7770   56.3280   14.9600 C   0  0  0  0  0  0  0  0  0  0  0  0
   46.5140   57.5320   15.4060 C   0  0  0  0  0  0  0  0  0  0  0  0
  1  6  2  0  0  0  0
  2  3  2  0  0  0  0
  2  1  1  0  0  0  0
  3  4  1  0  0  0  0
  4  6  1  0  0  0  0
  4  5  1  0  0  0  0
  7  8  1  0  0  0  0
  7  3  1  0  0  0  0
  9  7  1  0  0  0  0
 10  9  2  0  0  0  0
 11 16  1  0  0  0  0
 11 10  1  0  0  0  0
 12 11  2  0  0  0  0
 13 14  2  0  0  0  0
 13 12  1  0  0  0  0
 14 15  1  0  0  0  0
 15 16  2  0  0  0  0
 16 17  1  0  0  0  0
 18  1  1  0  0  0  0
 19 22  1  0  0  0  0
 19 18  1  0  0  0  0
 20 22  1  0  0  0  0
 20 29  1  0  0  0  0
 21 20  1  0  0  0  0
 22 23  2  0  0  0  0
 24 25  2  0  0  0  0
 24 29  1  0  0  0  0
 25 26  1  0  0  0  0
 26 27  2  0  0  0  0
 28 27  1  0  0  0  0
 29 28  2  0  0  0  0
 30 24  1  0  0  0  0
 31 30  1  0  0  0  0
 32 33  2  0  0  0  0
 33 31  1  0  0  0  0
M  END
>  <MODEL>
8

>  <REMARK>
  Name = ZINC59015044
                            x       y       z     vdW  Elec       q    Type
                         _______ _______ _______ _____ _____    ______ ____

>  <TORSDO>
F 10

>  <minimizedAffinity>
-7.968745558550447

$$$$
ZINC59015044
 OpenBabel10211215303D

 33 35  0  0  0  0  0  0  0  0999 V2000
   51.0620   50.8070   19.0120 C   0  0  0  0  0  0  0  0  0  0  0  0
   50.9190   50.8850   17.6860 N   0  0  0  0  0  0  0  0  0  0  0  0
   50.1330   49.9160   17.2670 C   0  0  0  0  0  0  0  0  0  0  0  0
   49.7560   49.1900   18.3420 N   0  0  0  0  0  0  0  0  0  0  0  0
   49.1770   48.4130   18.3440 H   0  0  0  0  0  0  0  0  0  0  0  0
   50.3740   49.7810   19.4560 N   0  0  0  0  0  0  0  0  0  0  0  0
   49.7580   49.6810   15.9570 N   0  0  0  0  0  0  0  0  0  0  0  0
   50.4060   49.7740   15.2420 H   0  0  0  0  0  0  0  0  0  0  0  0
   48.4400   49.3060   15.6630 N   0  0  0  0  0  0  0  0  0  0  0  0
   48.1020   48.0530   15.6860 C   0  0  0  0  0  0  0  0  0  0  0  0
   46.7150   47.6590   15.3760 C   0  0  0  0  0  0  0  0  0  0  0  0
   45.9420   48.4340   14.5080 C   0  0  0  0  0  0  0  0  0  0  0  0
   44.6460   48.0580   14.2220 C   0  0  0  0  0  0  0  0  0  0  0  0
   44.1090   46.9160   14.7910 C   0  0  0  0  0  0  0  0  0  0  0  0
   44.8670   46.1430   15.6520 C   0  0  0  0  0  0  0  0  0  0  0  0
   46.1690   46.5030   15.9440 C   0  0  0  0  0  0  0  0  0  0  0  0
   46.9100   45.7420   16.7800 F   0  0  0  0  0  0  0  0  0  0  0  0
   52.0260   51.8980   20.0050 S   0  0  0  0  0  0  0  0  0  0  0  0
   52.4620   53.2500   18.8770 C   0  0  0  0  0  0  0  0  0  0  0  0
   50.7050   54.4060   20.1800 N   0  0  0  0  0  0  0  0  0  0  0  0
   50.5990   53.5960   20.7010 H   0  0  0  0  0  0  0  0  0  0  0  0
   51.6520   54.4730   19.2220 C   0  0  0  0  0  0  0  0  0  0  0  0
   51.8530   55.5170   18.6390 O   0  0  0  0  0  0  0  0  0  0  0  0
   50.1750   56.3990   21.4520 C   0  0  0  0  0  0  0  0  0  0  0  0
   49.3510   57.4910   21.6820 C   0  0  0  0  0  0  0  0  0  0  0  0
   48.2340   57.6920   20.8940 C   0  0  0  0  0  0  0  0  0  0  0  0
   47.9330   56.8070   19.8750 C   0  0  0  0  0  0  0  0  0  0  0  0
   48.7480   55.7160   19.6390 C   0  0  0  0  0  0  0  0  0  0  0  0
   49.8750   55.5090   20.4200 C   0  0  0  0  0  0  0  0  0  0  0  0
   51.6010   56.1400   22.4550 S   0  0  0  0  0  0  0  0  0  0  0  0
   52.6280   57.6030   22.1440 C   0  0  0  0  0  0  0  0  0  0  0  0
   54.4250   58.0580   20.5560 C   0  0  0  0  0  0  0  0  0  0  0  0
   53.2690   57.4860   20.7850 C   0  0  0  0  0  0  0  0  0  0  0  0
  1  6  2  0  0  0  0
  1 18  1  0  0  0  0
  2  1  1  0  0  0  0
  3  2  2  0  0  0  0
  3  4  1  0  0  0  0
  4  5  1  0  0  0  0
  4  6  1  0  0  0  0
  7  3  1  0  0  0  0
  8  7  1  0  0  0  0
  9 10  2  0  0  0  0
  9  7  1  0  0  0  0
 11 10  1  0  0  0  0
 11 16  2  0  0  0  0
 12 11  1  0  0  0  0
 13 12  2  0  0  0  0
 13 14  1  0  0  0  0
 14 15  2  0  0  0  0
 15 16  1  0  0  0  0
 16 17  1  0  0  0  0
 19 22  1  0  0  0  0
 19 18  1  0  0  0  0
 20 29  1  0  0  0  0
 20 21  1  0  0  0  0
 22 20  1  0  0  0  0
 23 22  2  0  0  0  0
 24 25  1  0  0  0  0
 24 30  1  0  0  0  0
 26 25  2  0  0  0  0
 27 26  1  0  0  0  0
 28 27  2  0  0  0  0
 28 29  1  0  0  0  0
 29 24  2  0  0  0  0
 31 30  1  0  0  0  0
 32 33  2  0  0  0  0
 33 31  1  0  0  0  0
M  END
>  <MODEL>
9

>  <REMARK>
  Name = ZINC59015044
                            x       y       z     vdW  Elec       q    Type
                         _______ _______ _______ _____ _____    ______ ____

>  <TORSDO>
F 10

>  <minimizedAffinity>
-7.8652400767575577

$$$$
ZINC42104866
 OpenBabel10211215333D

 29 30  0  0  1  0  0  0  0  0999 V2000
   50.2970   49.2690   18.6030 N   0  0  0  0  0  0  0  0  0  0  0  0
   50.6390   49.7470   17.8300 H   0  0  0  0  0  0  0  0  0  0  0  0
   50.6550   49.6520   19.8440 C   0  0  0  0  0  0  0  0  0  0  0  0
   50.2280   49.0550   20.8090 O   0  0  0  0  0  0  0  0  0  0  0  0
   51.5840   50.8230   20.0330 C   0  0  1  0  0  0  0  0  0  0  0  0
   52.4590   51.0440   18.7780 C   0  0  0  0  0  0  0  0  0  0  0  0
   52.5740   52.5480   18.6660 C   0  0  0  0  0  0  0  0  0  0  0  0
   51.6340   53.1410   19.4230 N   0  0  0  0  0  0  0  0  0  0  0  0
   53.3930   53.1350   17.9920 O   0  0  0  0  0  0  0  0  0  0  0  0
   50.7950   52.1490   20.1060 C   0  0  0  0  0  0  0  0  0  0  0  0
   51.4680   54.5920   19.5500 C   0  0  0  0  0  0  0  0  0  0  0  0
   51.0300   54.9320   20.9750 C   0  0  0  0  0  0  0  0  0  0  0  0
   49.9270   55.9580   20.9280 C   0  0  0  0  0  0  0  0  0  0  0  0
   48.8460   55.7740   20.0860 C   0  0  0  0  0  0  0  0  0  0  0  0
   47.8340   56.7140   20.0430 C   0  0  0  0  0  0  0  0  0  0  0  0
   47.9030   57.8400   20.8430 C   0  0  0  0  0  0  0  0  0  0  0  0
   48.9840   58.0240   21.6860 C   0  0  0  0  0  0  0  0  0  0  0  0
   49.9930   57.0810   21.7310 C   0  0  0  0  0  0  0  0  0  0  0  0
   49.4320   48.1800   18.4270 N   0  0  0  0  0  0  0  0  0  0  0  0
   49.3720   47.4940   19.1090 H   0  0  0  0  0  0  0  0  0  0  0  0
   48.6840   48.0880   17.3100 C   0  0  0  0  0  0  0  0  0  0  0  0
   48.3660   46.5540   16.6170 S   0  0  0  0  0  0  0  0  0  0  0  0
   48.1850   49.2010   16.7380 N   0  0  0  0  0  0  0  0  0  0  0  0
   48.7530   49.9780   16.6120 H   0  0  0  0  0  0  0  0  0  0  0  0
   46.7870   49.2390   16.3050 C   0  0  0  0  0  0  0  0  0  0  0  0
   45.8910   49.5710   17.5000 C   0  0  0  0  0  0  0  0  0  0  0  0
   44.6960   47.7030   16.3500 C   0  0  0  0  0  0  0  0  0  0  0  0
   44.8250   48.4850   17.6580 C   0  0  0  0  0  0  0  0  0  0  0  0
   45.2320   47.5320   18.7850 C   0  0  0  0  0  0  0  0  0  0  0  0
  1  3  1  0  0  0  0
  2  1  1  0  0  0  0
  3  4  2  0  0  0  0
  5  3  1  6  0  0  0
  5 10  1  0  0  0  0
  6  5  1  0  0  0  0
  7  6  1  0  0  0  0
  7  8  1  0  0  0  0
  8 11  1  0  0  0  0
  8 10  1  0  0  0  0
  9  7  2  0  0  0  0
 11 12  1  0  0  0  0
 13 12  1  0  0  0  0
 13 18  2  0  0  0  0
 14 13  1  0  0  0  0
 15 14  2  0  0  0  0
 15 16  1  0  0  0  0
 16 17  2  0  0  0  0
 17 18  1  0  0  0  0
 19  1  1  0  0  0  0
 19 20  1  0  0  0  0
 21 19  1  0  0  0  0
 22 21  2  0  0  0  0
 23 21  1  0  0  0  0
 24 23  1  0  0  0  0
 25 23  1  0  0  0  0
 25 26  1  0  0  0  0
 26 28  1  0  0  0  0
 27 28  1  0  0  0  0
 28 29  1  0  0  0  0
M  END
>  <MODEL>
1

>  <REMARK>
  Name = ZINC42104866
                            x       y       z     vdW  Elec       q    Type
                         _______ _______ _______ _____ _____    ______ ____

>  <TORSDO>
F 10

>  <minimizedAffinity>
-8.7146025831423941

$$$$
ZINC42104866
 OpenBabel10211215333D

 29 30  0  0  1  0  0  0  0  0999 V2000
   50.4770   49.3060   18.8770 N   0  0  0  0  0  0  0  0  0  0  0  0
   50.8110   49.7350   18.0730 H   0  0  0  0  0  0  0  0  0  0  0  0
   50.9320   49.6930   20.0850 C   0  0  0  0  0  0  0  0  0  0  0  0
   50.5160   49.1580   21.0900 O   0  0  0  0  0  0  0  0  0  0  0  0
   51.9570   50.7930   20.1880 C   0  0  1  0  0  0  0  0  0  0  0  0
   52.5650   51.1150   18.8030 C   0  0  0  0  0  0  0  0  0  0  0  0
   52.7560   52.6150   18.8210 C   0  0  0  0  0  0  0  0  0  0  0  0
   52.0360   53.1610   19.8170 N   0  0  0  0  0  0  0  0  0  0  0  0
   53.4550   53.2360   18.0490 O   0  0  0  0  0  0  0  0  0  0  0  0
   51.2920   52.1370   20.5610 C   0  0  0  0  0  0  0  0  0  0  0  0
   51.9990   54.5930   20.1210 C   0  0  0  0  0  0  0  0  0  0  0  0
   51.2170   54.8200   21.4150 C   0  0  0  0  0  0  0  0  0  0  0  0
   50.1090   55.8100   21.1650 C   0  0  0  0  0  0  0  0  0  0  0  0
   49.0900   55.4990   20.2840 C   0  0  0  0  0  0  0  0  0  0  0  0
   48.0730   56.4070   20.0540 C   0  0  0  0  0  0  0  0  0  0  0  0
   48.0750   57.6260   20.7060 C   0  0  0  0  0  0  0  0  0  0  0  0
   49.0940   57.9370   21.5880 C   0  0  0  0  0  0  0  0  0  0  0  0
   50.1080   57.0270   21.8200 C   0  0  0  0  0  0  0  0  0  0  0  0
   49.5230   48.2840   18.7820 N   0  0  0  0  0  0  0  0  0  0  0  0
   49.6170   47.4820   19.3180 H   0  0  0  0  0  0  0  0  0  0  0  0
   48.4750   48.4170   17.9450 C   0  0  0  0  0  0  0  0  0  0  0  0
   48.2370   47.2820   16.6850 S   0  0  0  0  0  0  0  0  0  0  0  0
   47.6140   49.4420   18.0990 N   0  0  0  0  0  0  0  0  0  0  0  0
   47.4040   49.7690   18.9880 H   0  0  0  0  0  0  0  0  0  0  0  0
   46.9970   50.0630   16.9250 C   0  0  0  0  0  0  0  0  0  0  0  0
   47.9540   51.1010   16.3340 C   0  0  0  0  0  0  0  0  0  0  0  0
   49.1780   52.7290   17.7820 C   0  0  0  0  0  0  0  0  0  0  0  0
   47.8360   52.4090   17.1180 C   0  0  0  0  0  0  0  0  0  0  0  0
   47.4570   53.5430   16.1620 C   0  0  0  0  0  0  0  0  0  0  0  0
  1  3  1  0  0  0  0
  2  1  1  0  0  0  0
  3  4  2  0  0  0  0
  5  3  1  6  0  0  0
  5 10  1  0  0  0  0
  6  7  1  0  0  0  0
  6  5  1  0  0  0  0
  7  8  1  0  0  0  0
  8 11  1  0  0  0  0
  8 10  1  0  0  0  0
  9  7  2  0  0  0  0
 11 12  1  0  0  0  0
 13 12  1  0  0  0  0
 13 18  2  0  0  0  0
 14 13  1  0  0  0  0
 15 14  2  0  0  0  0
 15 16  1  0  0  0  0
 16 17  2  0  0  0  0
 17 18  1  0  0  0  0
 19  1  1  0  0  0  0
 19 20  1  0  0  0  0
 21 23  1  0  0  0  0
 21 19  1  0  0  0  0
 22 21  2  0  0  0  0
 23 24  1  0  0  0  0
 25 23  1  0  0  0  0
 26 25  1  0  0  0  0
 26 28  1  0  0  0  0
 28 27  1  0  0  0  0
 29 28  1  0  0  0  0
M  END
>  <MODEL>
2

>  <REMARK>
  Name = ZINC42104866
                            x       y       z     vdW  Elec       q    Type
                         _______ _______ _______ _____ _____    ______ ____

>  <TORSDO>
F 10

>  <minimizedAffinity>
-8.6539945377254988

$$$$
ZINC42104866
 OpenBabel10211215333D

 29 30  0  0  1  0  0  0  0  0999 V2000
   51.0040   54.6170   21.2600 N   0  0  0  0  0  0  0  0  0  0  0  0
   50.2710   54.3890   21.8540 H   0  0  0  0  0  0  0  0  0  0  0  0
   50.9880   54.1980   19.9790 C   0  0  0  0  0  0  0  0  0  0  0  0
   51.9030   54.4830   19.2370 O   0  0  0  0  0  0  0  0  0  0  0  0
   49.8310   53.3780   19.4680 C   0  0  1  0  0  0  0  0  0  0  0  0
   49.3730   53.8730   18.0770 C   0  0  0  0  0  0  0  0  0  0  0  0
   49.0010   52.6070   17.3380 C   0  0  0  0  0  0  0  0  0  0  0  0
   49.5130   51.5350   17.9680 N   0  0  0  0  0  0  0  0  0  0  0  0
   48.3370   52.5640   16.3240 O   0  0  0  0  0  0  0  0  0  0  0  0
   50.2730   51.9300   19.1600 C   0  0  0  0  0  0  0  0  0  0  0  0
   49.3350   50.1510   17.5230 C   0  0  0  0  0  0  0  0  0  0  0  0
   48.7590   49.3170   18.6680 C   0  0  0  0  0  0  0  0  0  0  0  0
   47.3330   48.9460   18.3510 C   0  0  0  0  0  0  0  0  0  0  0  0
   46.6840   47.9870   19.1070 C   0  0  0  0  0  0  0  0  0  0  0  0
   45.3760   47.6470   18.8170 C   0  0  0  0  0  0  0  0  0  0  0  0
   44.7170   48.2660   17.7710 C   0  0  0  0  0  0  0  0  0  0  0  0
   45.3650   49.2250   17.0160 C   0  0  0  0  0  0  0  0  0  0  0  0
   46.6720   49.5680   17.3090 C   0  0  0  0  0  0  0  0  0  0  0  0
   52.0790   55.3800   21.7350 N   0  0  0  0  0  0  0  0  0  0  0  0
   52.9200   54.9500   21.9510 H   0  0  0  0  0  0  0  0  0  0  0  0
   51.9420   56.7120   21.8900 C   0  0  0  0  0  0  0  0  0  0  0  0
   53.2890   57.7430   21.6560 S   0  0  0  0  0  0  0  0  0  0  0  0
   50.7470   57.2320   22.2290 N   0  0  0  0  0  0  0  0  0  0  0  0
   50.3900   57.0880   23.1200 H   0  0  0  0  0  0  0  0  0  0  0  0
   49.9860   58.0170   21.2540 C   0  0  0  0  0  0  0  0  0  0  0  0
   48.5750   58.2690   21.7900 C   0  0  0  0  0  0  0  0  0  0  0  0
   47.5190   59.0270   19.6570 C   0  0  0  0  0  0  0  0  0  0  0  0
   47.5490   57.9190   20.7120 C   0  0  0  0  0  0  0  0  0  0  0  0
   47.9360   56.5940   20.0500 C   0  0  0  0  0  0  0  0  0  0  0  0
  1 19  1  0  0  0  0
  1  2  1  0  0  0  0
  3  1  1  0  0  0  0
  4  3  2  0  0  0  0
  5  3  1  6  0  0  0
  6  5  1  0  0  0  0
  7  8  1  0  0  0  0
  7  6  1  0  0  0  0
  8 10  1  0  0  0  0
  9  7  2  0  0  0  0
 10  5  1  0  0  0  0
 11  8  1  0  0  0  0
 11 12  1  0  0  0  0
 13 12  1  0  0  0  0
 13 14  2  0  0  0  0
 15 14  1  0  0  0  0
 16 15  2  0  0  0  0
 17 18  2  0  0  0  0
 17 16  1  0  0  0  0
 18 13  1  0  0  0  0
 19 21  1  0  0  0  0
 19 20  1  0  0  0  0
 21 23  1  0  0  0  0
 22 21  2  0  0  0  0
 23 24  1  0  0  0  0
 25 26  1  0  0  0  0
 25 23  1  0  0  0  0
 27 28  1  0  0  0  0
 28 26  1  0  0  0  0
 29 28  1  0  0  0  0
M  END
>  <MODEL>
3

>  <REMARK>
  Name = ZINC42104866
                            x       y       z     vdW  Elec       q    Type
                         _______ _______ _______ _____ _____    ______ ____

>  <TORSDO>
F 10

>  <minimizedAffinity>
-8.576761727015958

$$$$
ZINC42104866
 OpenBabel10211215333D

 29 30  0  0  1  0  0  0  0  0999 V2000
   50.3030   51.2510   16.8730 N   0  0  0  0  0  0  0  0  0  0  0  0
   49.9840   52.1230   16.5910 H   0  0  0  0  0  0  0  0  0  0  0  0
   50.5510   51.0140   18.1760 C   0  0  0  0  0  0  0  0  0  0  0  0
   50.9500   49.9240   18.5280 O   0  0  0  0  0  0  0  0  0  0  0  0
   50.3320   52.1020   19.1960 C   0  0  1  0  0  0  0  0  0  0  0  0
   50.9080   51.6950   20.5710 C   0  0  0  0  0  0  0  0  0  0  0  0
   51.4730   52.9810   21.1320 C   0  0  0  0  0  0  0  0  0  0  0  0
   51.6060   53.8930   20.1530 N   0  0  0  0  0  0  0  0  0  0  0  0
   51.7650   53.1640   22.2950 O   0  0  0  0  0  0  0  0  0  0  0  0
   51.1720   53.3540   18.8590 C   0  0  0  0  0  0  0  0  0  0  0  0
   52.1180   55.2510   20.3530 C   0  0  0  0  0  0  0  0  0  0  0  0
   51.4490   56.2000   19.3570 C   0  0  0  0  0  0  0  0  0  0  0  0
   50.2080   56.7870   19.9800 C   0  0  0  0  0  0  0  0  0  0  0  0
   48.9910   56.6730   19.3330 C   0  0  0  0  0  0  0  0  0  0  0  0
   47.8520   57.2110   19.9040 C   0  0  0  0  0  0  0  0  0  0  0  0
   47.9310   57.8630   21.1200 C   0  0  0  0  0  0  0  0  0  0  0  0
   49.1480   57.9760   21.7670 C   0  0  0  0  0  0  0  0  0  0  0  0
   50.2850   57.4350   21.1980 C   0  0  0  0  0  0  0  0  0  0  0  0
   50.5060   50.2390   15.9250 N   0  0  0  0  0  0  0  0  0  0  0  0
   51.3780   50.1240   15.5180 H   0  0  0  0  0  0  0  0  0  0  0  0
   49.4880   49.4270   15.5790 C   0  0  0  0  0  0  0  0  0  0  0  0
   48.4010   49.8980   14.3430 S   0  0  0  0  0  0  0  0  0  0  0  0
   49.3260   48.2450   16.2030 N   0  0  0  0  0  0  0  0  0  0  0  0
   50.0840   47.6500   16.3200 H   0  0  0  0  0  0  0  0  0  0  0  0
   48.0070   47.8570   16.7070 C   0  0  0  0  0  0  0  0  0  0  0  0
   47.8550   48.3260   18.1550 C   0  0  0  0  0  0  0  0  0  0  0  0
   45.7990   49.3020   17.1230 C   0  0  0  0  0  0  0  0  0  0  0  0
   46.4030   48.7350   18.4100 C   0  0  0  0  0  0  0  0  0  0  0  0
   45.5990   47.5110   18.8550 C   0  0  0  0  0  0  0  0  0  0  0  0
  1  3  1  0  0  0  0
  2  1  1  0  0  0  0
  3  4  2  0  0  0  0
  5  3  1  6  0  0  0
  5  6  1  0  0  0  0
  6  7  1  0  0  0  0
  7  9  2  0  0  0  0
  8 11  1  0  0  0  0
  8  7  1  0  0  0  0
 10  5  1  0  0  0  0
 10  8  1  0  0  0  0
 12 13  1  0  0  0  0
 12 11  1  0  0  0  0
 13 18  2  0  0  0  0
 14 15  2  0  0  0  0
 14 13  1  0  0  0  0
 15 16  1  0  0  0  0
 16 17  2  0  0  0  0
 18 17  1  0  0  0  0
 19  1  1  0  0  0  0
 20 19  1  0  0  0  0
 21 19  1  0  0  0  0
 21 23  1  0  0  0  0
 22 21  2  0  0  0  0
 23 24  1  0  0  0  0
 23 25  1  0  0  0  0
 25 26  1  0  0  0  0
 26 28  1  0  0  0  0
 27 28  1  0  0  0  0
 28 29  1  0  0  0  0
M  END
>  <MODEL>
4

>  <REMARK>
  Name = ZINC42104866
                            x       y       z     vdW  Elec       q    Type
                         _______ _______ _______ _____ _____    ______ ____

>  <TORSDO>
F 10

>  <minimizedAffinity>
-8.4978351607389389

$$$$
ZINC42104866
 OpenBabel10211215333D

 29 30  0  0  1  0  0  0  0  0999 V2000
   51.8840   53.3880   19.1870 N   0  0  0  0  0  0  0  0  0  0  0  0
   51.1230   53.1430   19.7370 H   0  0  0  0  0  0  0  0  0  0  0  0
   52.4890   52.4580   18.4220 C   0  0  0  0  0  0  0  0  0  0  0  0
   53.4400   52.7640   17.7340 O   0  0  0  0  0  0  0  0  0  0  0  0
   51.9830   51.0390   18.4200 C   0  0  1  0  0  0  0  0  0  0  0  0
   51.9800   50.4490   19.8490 C   0  0  0  0  0  0  0  0  0  0  0  0
   50.7350   49.5920   19.8940 C   0  0  0  0  0  0  0  0  0  0  0  0
   49.9170   49.9100   18.8750 N   0  0  0  0  0  0  0  0  0  0  0  0
   50.5070   48.7410   20.7280 O   0  0  0  0  0  0  0  0  0  0  0  0
   50.4830   50.9860   18.0530 C   0  0  0  0  0  0  0  0  0  0  0  0
   48.6270   49.2650   18.6190 C   0  0  0  0  0  0  0  0  0  0  0  0
   47.8260   50.1050   17.6240 C   0  0  0  0  0  0  0  0  0  0  0  0
   46.7140   49.2700   17.0430 C   0  0  0  0  0  0  0  0  0  0  0  0
   46.7350   48.9260   15.7040 C   0  0  0  0  0  0  0  0  0  0  0  0
   45.7160   48.1600   15.1710 C   0  0  0  0  0  0  0  0  0  0  0  0
   44.6740   47.7380   15.9760 C   0  0  0  0  0  0  0  0  0  0  0  0
   44.6530   48.0820   17.3150 C   0  0  0  0  0  0  0  0  0  0  0  0
   45.6750   48.8440   17.8490 C   0  0  0  0  0  0  0  0  0  0  0  0
   52.3540   54.7090   19.1890 N   0  0  0  0  0  0  0  0  0  0  0  0
   52.8720   55.0390   18.4390 H   0  0  0  0  0  0  0  0  0  0  0  0
   52.0850   55.5180   20.2320 C   0  0  0  0  0  0  0  0  0  0  0  0
   53.0680   56.8880   20.5270 S   0  0  0  0  0  0  0  0  0  0  0  0
   51.0430   55.2500   21.0420 N   0  0  0  0  0  0  0  0  0  0  0  0
   50.8860   54.3420   21.3470 H   0  0  0  0  0  0  0  0  0  0  0  0
   50.1460   56.3290   21.4640 C   0  0  0  0  0  0  0  0  0  0  0  0
   48.9850   56.4440   20.4750 C   0  0  0  0  0  0  0  0  0  0  0  0
   48.7890   58.4610   21.9370 C   0  0  0  0  0  0  0  0  0  0  0  0
   48.0800   57.6090   20.8820 C   0  0  0  0  0  0  0  0  0  0  0  0
   47.7720   58.4680   19.6550 C   0  0  0  0  0  0  0  0  0  0  0  0
  1 19  1  0  0  0  0
  1  2  1  0  0  0  0
  3  1  1  0  0  0  0
  4  3  2  0  0  0  0
  5  3  1  1  0  0  0
  5  6  1  0  0  0  0
  6  7  1  0  0  0  0
  7  9  2  0  0  0  0
  8  7  1  0  0  0  0
 10  5  1  0  0  0  0
 10  8  1  0  0  0  0
 11  8  1  0  0  0  0
 12 11  1  0  0  0  0
 13 12  1  0  0  0  0
 13 18  2  0  0  0  0
 14 13  1  0  0  0  0
 15 14  2  0  0  0  0
 15 16  1  0  0  0  0
 16 17  2  0  0  0  0
 17 18  1  0  0  0  0
 19 21  1  0  0  0  0
 20 19  1  0  0  0  0
 21 22  2  0  0  0  0
 21 23  1  0  0  0  0
 23 24  1  0  0  0  0
 23 25  1  0  0  0  0
 26 28  1  0  0  0  0
 26 25  1  0  0  0  0
 28 27  1  0  0  0  0
 29 28  1  0  0  0  0
M  END
>  <MODEL>
5

>  <REMARK>
  Name = ZINC42104866
                            x       y       z     vdW  Elec       q    Type
                         _______ _______ _______ _____ _____    ______ ____

>  <TORSDO>
F 10

>  <minimizedAffinity>
-8.1552990377341406

$$$$
ZINC42104866
 OpenBabel10211215333D

 29 30  0  0  1  0  0  0  0  0999 V2000
   52.3870   55.3920   20.0760 N   0  0  0  0  0  0  0  0  0  0  0  0
   53.1180   54.9980   20.5770 H   0  0  0  0  0  0  0  0  0  0  0  0
   51.5840   54.6110   19.3280 C   0  0  0  0  0  0  0  0  0  0  0  0
   50.6700   55.1040   18.7010 O   0  0  0  0  0  0  0  0  0  0  0  0
   51.8210   53.1240   19.2700 C   0  0  1  0  0  0  0  0  0  0  0  0
   51.6670   52.4830   20.6680 C   0  0  0  0  0  0  0  0  0  0  0  0
   51.0110   51.1480   20.3950 C   0  0  0  0  0  0  0  0  0  0  0  0
   50.4840   51.1360   19.1580 N   0  0  0  0  0  0  0  0  0  0  0  0
   50.9670   50.2220   21.1770 O   0  0  0  0  0  0  0  0  0  0  0  0
   50.7020   52.4160   18.4730 C   0  0  0  0  0  0  0  0  0  0  0  0
   49.7820   49.9930   18.5690 C   0  0  0  0  0  0  0  0  0  0  0  0
   49.4480   50.2970   17.1090 C   0  0  0  0  0  0  0  0  0  0  0  0
   48.0960   49.7210   16.7730 C   0  0  0  0  0  0  0  0  0  0  0  0
   47.0340   49.9020   17.6400 C   0  0  0  0  0  0  0  0  0  0  0  0
   45.7940   49.3750   17.3330 C   0  0  0  0  0  0  0  0  0  0  0  0
   45.6150   48.6660   16.1590 C   0  0  0  0  0  0  0  0  0  0  0  0
   46.6780   48.4850   15.2930 C   0  0  0  0  0  0  0  0  0  0  0  0
   47.9160   49.0160   15.5980 C   0  0  0  0  0  0  0  0  0  0  0  0
   52.1660   56.7750   20.1310 N   0  0  0  0  0  0  0  0  0  0  0  0
   51.9420   57.2630   19.3230 H   0  0  0  0  0  0  0  0  0  0  0  0
   52.2670   57.4270   21.3060 C   0  0  0  0  0  0  0  0  0  0  0  0
   53.7960   57.9640   21.8580 S   0  0  0  0  0  0  0  0  0  0  0  0
   51.1640   57.6590   22.0450 N   0  0  0  0  0  0  0  0  0  0  0  0
   51.2300   58.1720   22.8650 H   0  0  0  0  0  0  0  0  0  0  0  0
   49.8670   57.1370   21.6090 C   0  0  0  0  0  0  0  0  0  0  0  0
   48.8090   58.2350   21.7260 C   0  0  0  0  0  0  0  0  0  0  0  0
   47.5150   59.0230   19.7400 C   0  0  0  0  0  0  0  0  0  0  0  0
   47.6390   57.9200   20.7920 C   0  0  0  0  0  0  0  0  0  0  0  0
   47.8880   56.5780   20.0990 C   0  0  0  0  0  0  0  0  0  0  0  0
  1 19  1  0  0  0  0
  1  2  1  0  0  0  0
  3  1  1  0  0  0  0
  4  3  2  0  0  0  0
  5  3  1  1  0  0  0
  5  6  1  0  0  0  0
  7  6  1  0  0  0  0
  7  9  2  0  0  0  0
  8  7  1  0  0  0  0
 10  8  1  0  0  0  0
 10  5  1  0  0  0  0
 11  8  1  0  0  0  0
 12 11  1  0  0  0  0
 13 12  1  0  0  0  0
 13 14  2  0  0  0  0
 15 14  1  0  0  0  0
 16 15  2  0  0  0  0
 17 18  2  0  0  0  0
 17 16  1  0  0  0  0
 18 13  1  0  0  0  0
 19 21  1  0  0  0  0
 20 19  1  0  0  0  0
 21 22  2  0  0  0  0
 21 23  1  0  0  0  0
 23 24  1  0  0  0  0
 25 26  1  0  0  0  0
 25 23  1  0  0  0  0
 27 28  1  0  0  0  0
 28 26  1  0  0  0  0
 29 28  1  0  0  0  0
M  END
>  <MODEL>
6

>  <REMARK>
  Name = ZINC42104866
                            x       y       z     vdW  Elec       q    Type
                         _______ _______ _______ _____ _____    ______ ____

>  <TORSDO>
F 10

>  <minimizedAffinity>
-8.0787171413619223

$$$$
ZINC42104866
 OpenBabel10211215333D

 29 30  0  0  1  0  0  0  0  0999 V2000
   50.0800   49.7950   17.3450 N   0  0  0  0  0  0  0  0  0  0  0  0
   50.4360   50.5220   16.8100 H   0  0  0  0  0  0  0  0  0  0  0  0
   50.1690   49.8410   18.6890 C   0  0  0  0  0  0  0  0  0  0  0  0
   49.7250   48.9320   19.3580 O   0  0  0  0  0  0  0  0  0  0  0  0
   50.8200   51.0220   19.3610 C   0  0  1  0  0  0  0  0  0  0  0  0
   52.1730   51.3630   18.6940 C   0  0  0  0  0  0  0  0  0  0  0  0
   52.2340   52.8730   18.7280 C   0  0  0  0  0  0  0  0  0  0  0  0
   51.0120   53.3800   18.9690 N   0  0  0  0  0  0  0  0  0  0  0  0
   53.2380   53.5330   18.5620 O   0  0  0  0  0  0  0  0  0  0  0  0
   50.0120   52.3150   19.1130 C   0  0  0  0  0  0  0  0  0  0  0  0
   50.7160   54.8110   19.0750 C   0  0  0  0  0  0  0  0  0  0  0  0
   49.2200   55.0060   19.3230 C   0  0  0  0  0  0  0  0  0  0  0  0
   49.0100   56.2130   20.2010 C   0  0  0  0  0  0  0  0  0  0  0  0
   49.9650   56.5600   21.1390 C   0  0  0  0  0  0  0  0  0  0  0  0
   49.7730   57.6670   21.9430 C   0  0  0  0  0  0  0  0  0  0  0  0
   48.6260   58.4280   21.8100 C   0  0  0  0  0  0  0  0  0  0  0  0
   47.6710   58.0810   20.8720 C   0  0  0  0  0  0  0  0  0  0  0  0
   47.8660   56.9760   20.0650 C   0  0  0  0  0  0  0  0  0  0  0  0
   49.4730   48.6970   16.7200 N   0  0  0  0  0  0  0  0  0  0  0  0
   49.2920   47.8900   17.2270 H   0  0  0  0  0  0  0  0  0  0  0  0
   49.1430   48.7620   15.4150 C   0  0  0  0  0  0  0  0  0  0  0  0
   50.2550   49.4040   14.2830 S   0  0  0  0  0  0  0  0  0  0  0  0
   47.9380   48.3230   15.0020 N   0  0  0  0  0  0  0  0  0  0  0  0
   47.8510   47.8880   14.1390 H   0  0  0  0  0  0  0  0  0  0  0  0
   46.7610   48.4990   15.8560 C   0  0  0  0  0  0  0  0  0  0  0  0
   45.4940   48.2420   15.0380 C   0  0  0  0  0  0  0  0  0  0  0  0
   44.5100   46.0980   15.8620 C   0  0  0  0  0  0  0  0  0  0  0  0
   44.4220   47.6240   15.9370 C   0  0  0  0  0  0  0  0  0  0  0  0
   44.6450   48.0780   17.3810 C   0  0  0  0  0  0  0  0  0  0  0  0
  1  3  1  0  0  0  0
  2  1  1  0  0  0  0
  3  4  2  0  0  0  0
  5  3  1  6  0  0  0
  6  7  1  0  0  0  0
  6  5  1  0  0  0  0
  7  8  1  0  0  0  0
  8 11  1  0  0  0  0
  8 10  1  0  0  0  0
  9  7  2  0  0  0  0
 10  5  1  0  0  0  0
 11 12  1  0  0  0  0
 12 13  1  0  0  0  0
 13 14  1  0  0  0  0
 14 15  2  0  0  0  0
 16 15  1  0  0  0  0
 17 16  2  0  0  0  0
 18 13  2  0  0  0  0
 18 17  1  0  0  0  0
 19 20  1  0  0  0  0
 19  1  1  0  0  0  0
 21 19  1  0  0  0  0
 22 21  2  0  0  0  0
 23 21  1  0  0  0  0
 23 25  1  0  0  0  0
 24 23  1  0  0  0  0
 26 25  1  0  0  0  0
 26 28  1  0  0  0  0
 27 28  1  0  0  0  0
 28 29  1  0  0  0  0
M  END
>  <MODEL>
7

>  <REMARK>
  Name = ZINC42104866
                            x       y       z     vdW  Elec       q    Type
                         _______ _______ _______ _____ _____    ______ ____

>  <TORSDO>
F 10

>  <minimizedAffinity>
-7.954447198953269

$$$$
ZINC42104866
 OpenBabel10211215333D

 29 30  0  0  1  0  0  0  0  0999 V2000
   49.9500   49.4140   17.6720 N   0  0  0  0  0  0  0  0  0  0  0  0
   50.4140   49.9580   17.0150 H   0  0  0  0  0  0  0  0  0  0  0  0
   50.1500   49.6310   18.9860 C   0  0  0  0  0  0  0  0  0  0  0  0
   49.5710   48.9510   19.8070 O   0  0  0  0  0  0  0  0  0  0  0  0
   51.0910   50.7180   19.4370 C   0  0  1  0  0  0  0  0  0  0  0  0
   52.2030   50.9570   18.3900 C   0  0  0  0  0  0  0  0  0  0  0  0
   52.4240   52.4530   18.4180 C   0  0  0  0  0  0  0  0  0  0  0  0
   51.3920   53.0610   19.0290 N   0  0  0  0  0  0  0  0  0  0  0  0
   53.3910   53.0220   17.9580 O   0  0  0  0  0  0  0  0  0  0  0  0
   50.3810   52.0890   19.4630 C   0  0  0  0  0  0  0  0  0  0  0  0
   51.2890   54.5080   19.2340 C   0  0  0  0  0  0  0  0  0  0  0  0
   50.9650   54.7930   20.7010 C   0  0  0  0  0  0  0  0  0  0  0  0
   49.9120   55.8680   20.7820 C   0  0  0  0  0  0  0  0  0  0  0  0
   50.0940   56.9520   21.6220 C   0  0  0  0  0  0  0  0  0  0  0  0
   49.1290   57.9380   21.6970 C   0  0  0  0  0  0  0  0  0  0  0  0
   47.9810   57.8410   20.9320 C   0  0  0  0  0  0  0  0  0  0  0  0
   47.7990   56.7580   20.0920 C   0  0  0  0  0  0  0  0  0  0  0  0
   48.7660   55.7740   20.0150 C   0  0  0  0  0  0  0  0  0  0  0  0
   49.0740   48.4040   17.2520 N   0  0  0  0  0  0  0  0  0  0  0  0
   49.2660   47.4770   17.4650 H   0  0  0  0  0  0  0  0  0  0  0  0
   47.9660   48.7200   16.5550 C   0  0  0  0  0  0  0  0  0  0  0  0
   47.0720   50.1230   16.9600 S   0  0  0  0  0  0  0  0  0  0  0  0
   47.5610   47.9340   15.5380 N   0  0  0  0  0  0  0  0  0  0  0  0
   47.8910   47.0250   15.4680 H   0  0  0  0  0  0  0  0  0  0  0  0
   46.6230   48.4520   14.5400 C   0  0  0  0  0  0  0  0  0  0  0  0
   45.7840   47.3010   13.9820 C   0  0  0  0  0  0  0  0  0  0  0  0
   43.7700   48.3230   12.9120 C   0  0  0  0  0  0  0  0  0  0  0  0
   45.1540   47.7250   12.6530 C   0  0  0  0  0  0  0  0  0  0  0  0
   46.0440   48.7710   11.9780 C   0  0  0  0  0  0  0  0  0  0  0  0
  1  3  1  0  0  0  0
  2  1  1  0  0  0  0
  3  4  2  0  0  0  0
  5  3  1  6  0  0  0
  5 10  1  0  0  0  0
  6  7  1  0  0  0  0
  6  5  1  0  0  0  0
  7  8  1  0  0  0  0
  8 11  1  0  0  0  0
  8 10  1  0  0  0  0
  9  7  2  0  0  0  0
 11 12  1  0  0  0  0
 12 13  1  0  0  0  0
 13 14  2  0  0  0  0
 14 15  1  0  0  0  0
 16 15  2  0  0  0  0
 17 16  1  0  0  0  0
 18 17  2  0  0  0  0
 18 13  1  0  0  0  0
 19 20  1  0  0  0  0
 19  1  1  0  0  0  0
 21 22  2  0  0  0  0
 21 19  1  0  0  0  0
 23 21  1  0  0  0  0
 24 23  1  0  0  0  0
 25 23  1  0  0  0  0
 26 25  1  0  0  0  0
 28 27  1  0  0  0  0
 28 26  1  0  0  0  0
 29 28  1  0  0  0  0
M  END
>  <MODEL>
8

>  <REMARK>
  Name = ZINC42104866
                            x       y       z     vdW  Elec       q    Type
                         _______ _______ _______ _____ _____    ______ ____

>  <TORSDO>
F 10

>  <minimizedAffinity>
-7.8754735442014843

$$$$
ZINC42104866
 OpenBabel10211215333D

 29 30  0  0  1  0  0  0  0  0999 V2000
   47.4370   49.5010   18.2370 N   0  0  0  0  0  0  0  0  0  0  0  0
   46.8220   50.2160   18.0100 H   0  0  0  0  0  0  0  0  0  0  0  0
   48.7560   49.6490   18.0070 C   0  0  0  0  0  0  0  0  0  0  0  0
   49.5260   48.7560   18.2910 O   0  0  0  0  0  0  0  0  0  0  0  0
   49.2770   50.9250   17.3970 C   0  0  1  0  0  0  0  0  0  0  0  0
   48.1840   51.6240   16.5570 C   0  0  0  0  0  0  0  0  0  0  0  0
   48.4080   53.0980   16.8060 C   0  0  0  0  0  0  0  0  0  0  0  0
   49.1870   53.2700   17.8890 N   0  0  0  0  0  0  0  0  0  0  0  0
   47.9530   53.9960   16.1290 O   0  0  0  0  0  0  0  0  0  0  0  0
   49.5620   51.9830   18.4870 C   0  0  0  0  0  0  0  0  0  0  0  0
   49.6070   54.5750   18.4060 C   0  0  0  0  0  0  0  0  0  0  0  0
   49.6020   54.5440   19.9350 C   0  0  0  0  0  0  0  0  0  0  0  0
   49.1710   55.8880   20.4630 C   0  0  0  0  0  0  0  0  0  0  0  0
   49.9760   56.5700   21.3560 C   0  0  0  0  0  0  0  0  0  0  0  0
   49.5820   57.8030   21.8400 C   0  0  0  0  0  0  0  0  0  0  0  0
   48.3810   58.3540   21.4330 C   0  0  0  0  0  0  0  0  0  0  0  0
   47.5750   57.6710   20.5400 C   0  0  0  0  0  0  0  0  0  0  0  0
   47.9720   56.4410   20.0530 C   0  0  0  0  0  0  0  0  0  0  0  0
   46.9540   48.3140   18.8050 N   0  0  0  0  0  0  0  0  0  0  0  0
   47.2530   48.0410   19.6860 H   0  0  0  0  0  0  0  0  0  0  0  0
   46.0730   47.5530   18.1260 C   0  0  0  0  0  0  0  0  0  0  0  0
   44.3940   47.7220   18.4180 S   0  0  0  0  0  0  0  0  0  0  0  0
   46.5120   46.6610   17.2180 N   0  0  0  0  0  0  0  0  0  0  0  0
   46.4260   45.7100   17.3910 H   0  0  0  0  0  0  0  0  0  0  0  0
   47.1170   47.1250   15.9680 C   0  0  0  0  0  0  0  0  0  0  0  0
   46.1710   48.1100   15.2770 C   0  0  0  0  0  0  0  0  0  0  0  0
   43.9320   47.3150   14.5060 C   0  0  0  0  0  0  0  0  0  0  0  0
   45.4190   47.3940   14.1540 C   0  0  0  0  0  0  0  0  0  0  0  0
   45.5940   48.1710   12.8480 C   0  0  0  0  0  0  0  0  0  0  0  0
  1 19  1  0  0  0  0
  2  1  1  0  0  0  0
  3  1  1  0  0  0  0
  3  4  2  0  0  0  0
  5  3  1  1  0  0  0
  5 10  1  0  0  0  0
  6  7  1  0  0  0  0
  6  5  1  0  0  0  0
  7  8  1  0  0  0  0
  8 11  1  0  0  0  0
  8 10  1  0  0  0  0
  9  7  2  0  0  0  0
 11 12  1  0  0  0  0
 12 13  1  0  0  0  0
 13 14  1  0  0  0  0
 14 15  2  0  0  0  0
 16 15  1  0  0  0  0
 17 16  2  0  0  0  0
 18 13  2  0  0  0  0
 18 17  1  0  0  0  0
 19 20  1  0  0  0  0
 21 22  2  0  0  0  0
 21 19  1  0  0  0  0
 23 24  1  0  0  0  0
 23 21  1  0  0  0  0
 25 23  1  0  0  0  0
 26 25  1  0  0  0  0
 28 27  1  0  0  0  0
 28 26  1  0  0  0  0
 29 28  1  0  0  0  0
M  END
>  <MODEL>
9

>  <REMARK>
  Name = ZINC42104866
                            x       y       z     vdW  Elec       q    Type
                         _______ _______ _______ _____ _____    ______ ____

>  <TORSDO>
F 10

>  <minimizedAffinity>
-7.8560953332051149

$$$$
ZINC67154842
 OpenBabel10211215353D

 31 32  0  0  1  0  0  0  0  0999 V2000
   51.6070   51.0070   17.6910 C   0  0  0  0  0  0  0  0  0  0  0  0
   50.7980   50.5790   18.9170 C   0  0  2  0  0  0  0  0  0  0  0  0
   49.3910   50.2390   18.4950 C   0  0  0  0  0  0  0  0  0  0  0  0
   48.7190   51.0590   17.6090 C   0  0  0  0  0  0  0  0  0  0  0  0
   47.4290   50.7500   17.2230 C   0  0  0  0  0  0  0  0  0  0  0  0
   46.8090   49.6130   17.7230 C   0  0  0  0  0  0  0  0  0  0  0  0
   47.4870   48.7910   18.6110 C   0  0  0  0  0  0  0  0  0  0  0  0
   48.7790   49.1030   18.9910 C   0  0  0  0  0  0  0  0  0  0  0  0
   45.5400   49.3070   17.3440 O   0  0  0  0  0  0  0  0  0  0  0  0
   45.0410   48.0240   17.7260 C   0  0  0  0  0  0  0  0  0  0  0  0
   44.6840   47.2370   16.4920 C   0  0  0  0  0  0  0  0  0  0  0  0
   45.2710   46.0450   16.2610 N   0  0  0  0  0  0  0  0  0  0  0  0
   45.9220   45.6940   16.8880 H   0  0  0  0  0  0  0  0  0  0  0  0
   43.8700   47.6750   15.7070 O   0  0  0  0  0  0  0  0  0  0  0  0
   44.9230   45.2790   15.0600 C   0  0  0  0  0  0  0  0  0  0  0  0
   43.8620   44.1870   15.2030 C   0  0  0  0  0  0  0  0  0  0  0  0
   45.3330   43.8050   15.0200 C   0  0  0  0  0  0  0  0  0  0  0  0
   50.7650   51.6750   19.8880 N   0  0  0  0  0  0  0  0  0  0  0  0
   50.0910   52.3690   19.8140 H   0  0  0  0  0  0  0  0  0  0  0  0
   51.6710   51.7190   20.8850 C   0  0  0  0  0  0  0  0  0  0  0  0
   52.5140   50.8510   20.9770 O   0  0  0  0  0  0  0  0  0  0  0  0
   51.6370   52.8460   21.8850 C   0  0  0  0  0  0  0  0  0  0  0  0
   51.2660   54.0900   21.2050 N   0  0  0  0  0  0  0  0  0  0  0  0
   50.8790   54.0600   20.3170 H   0  0  0  0  0  0  0  0  0  0  0  0
   51.4620   55.2750   21.8160 C   0  0  0  0  0  0  0  0  0  0  0  0
   51.9460   55.3130   22.9280 O   0  0  0  0  0  0  0  0  0  0  0  0
   51.0800   56.5550   21.1180 C   0  0  0  0  0  0  0  0  0  0  0  0
   49.6700   56.9680   21.5450 C   0  0  0  0  0  0  0  0  0  0  0  0
   48.7820   57.1040   20.3060 C   0  0  0  0  0  0  0  0  0  0  0  0
   47.5330   57.9150   20.6610 C   0  0  0  0  0  0  0  0  0  0  0  0
   48.3670   55.7150   19.8200 C   0  0  0  0  0  0  0  0  0  0  0  0
  2  1  1  6  0  0  0
  2 18  1  0  0  0  0
  3  2  1  0  0  0  0
  3  8  2  0  0  0  0
  4  3  1  0  0  0  0
  5  4  2  0  0  0  0
  5  6  1  0  0  0  0
  6  7  2  0  0  0  0
  7  8  1  0  0  0  0
  9  6  1  0  0  0  0
  9 10  1  0  0  0  0
 11 10  1  0  0  0  0
 12 11  1  0  0  0  0
 12 13  1  0  0  0  0
 14 11  2  0  0  0  0
 15 16  1  0  0  0  0
 15 12  1  0  0  0  0
 17 15  1  0  0  0  0
 17 16  1  0  0  0  0
 18 20  1  0  0  0  0
 19 18  1  0  0  0  0
 20 21  2  0  0  0  0
 20 22  1  0  0  0  0
 23 25  1  0  0  0  0
 23 22  1  0  0  0  0
 24 23  1  0  0  0  0
 25 26  2  0  0  0  0
 27 28  1  0  0  0  0
 27 25  1  0  0  0  0
 29 30  1  0  0  0  0
 29 28  1  0  0  0  0
 31 29  1  0  0  0  0
M  END
>  <MODEL>
1

>  <REMARK>
  Name = ZINC67154842
                            x       y       z     vdW  Elec       q    Type
                         _______ _______ _______ _____ _____    ______ ____

>  <TORSDO>
F 11

>  <minimizedAffinity>
-8.4978635676287304

$$$$
ZINC67154842
 OpenBabel10211215353D

 31 32  0  0  1  0  0  0  0  0999 V2000
   51.9400   51.0120   17.9660 C   0  0  0  0  0  0  0  0  0  0  0  0
   50.9950   50.7190   19.1340 C   0  0  2  0  0  0  0  0  0  0  0  0
   49.6160   50.4230   18.6020 C   0  0  0  0  0  0  0  0  0  0  0  0
   48.9890   49.2370   18.9340 C   0  0  0  0  0  0  0  0  0  0  0  0
   47.7250   48.9630   18.4470 C   0  0  0  0  0  0  0  0  0  0  0  0
   47.0860   49.8810   17.6250 C   0  0  0  0  0  0  0  0  0  0  0  0
   47.7180   51.0710   17.2960 C   0  0  0  0  0  0  0  0  0  0  0  0
   48.9790   51.3420   17.7890 C   0  0  0  0  0  0  0  0  0  0  0  0
   45.8420   49.6140   17.1460 O   0  0  0  0  0  0  0  0  0  0  0  0
   45.4620   48.2390   17.0600 C   0  0  0  0  0  0  0  0  0  0  0  0
   44.8320   47.9760   15.7160 C   0  0  0  0  0  0  0  0  0  0  0  0
   45.4570   48.3750   14.5910 N   0  0  0  0  0  0  0  0  0  0  0  0
   46.3120   48.8300   14.6440 H   0  0  0  0  0  0  0  0  0  0  0  0
   43.7630   47.4080   15.6480 O   0  0  0  0  0  0  0  0  0  0  0  0
   44.8440   48.1190   13.2840 C   0  0  0  0  0  0  0  0  0  0  0  0
   45.4110   46.9660   12.4520 C   0  0  0  0  0  0  0  0  0  0  0  0
   45.6860   48.4140   12.0400 C   0  0  0  0  0  0  0  0  0  0  0  0
   50.9370   51.8850   20.0200 N   0  0  0  0  0  0  0  0  0  0  0  0
   50.3530   52.6290   19.8040 H   0  0  0  0  0  0  0  0  0  0  0  0
   51.6940   51.9240   21.1340 C   0  0  0  0  0  0  0  0  0  0  0  0
   52.4250   50.9930   21.4020 O   0  0  0  0  0  0  0  0  0  0  0  0
   51.6340   53.1230   22.0450 C   0  0  0  0  0  0  0  0  0  0  0  0
   51.1410   54.2810   21.2950 N   0  0  0  0  0  0  0  0  0  0  0  0
   50.5960   54.1500   20.5040 H   0  0  0  0  0  0  0  0  0  0  0  0
   51.4450   55.5280   21.7060 C   0  0  0  0  0  0  0  0  0  0  0  0
   52.1270   55.6910   22.6960 O   0  0  0  0  0  0  0  0  0  0  0  0
   50.9380   56.7190   20.9360 C   0  0  0  0  0  0  0  0  0  0  0  0
   49.6260   57.2060   21.5550 C   0  0  0  0  0  0  0  0  0  0  0  0
   48.4620   56.8510   20.6260 C   0  0  0  0  0  0  0  0  0  0  0  0
   48.9930   56.6160   19.2100 C   0  0  0  0  0  0  0  0  0  0  0  0
   47.4560   58.0030   20.6080 C   0  0  0  0  0  0  0  0  0  0  0  0
  2  1  1  6  0  0  0
  2 18  1  0  0  0  0
  3  4  1  0  0  0  0
  3  2  1  0  0  0  0
  5  4  2  0  0  0  0
  6  5  1  0  0  0  0
  7  6  2  0  0  0  0
  7  8  1  0  0  0  0
  8  3  2  0  0  0  0
  9  6  1  0  0  0  0
 10  9  1  0  0  0  0
 11 10  1  0  0  0  0
 12 13  1  0  0  0  0
 12 11  1  0  0  0  0
 14 11  2  0  0  0  0
 15 12  1  0  0  0  0
 16 15  1  0  0  0  0
 17 16  1  0  0  0  0
 17 15  1  0  0  0  0
 18 20  1  0  0  0  0
 19 18  1  0  0  0  0
 20 21  2  0  0  0  0
 20 22  1  0  0  0  0
 23 25  1  0  0  0  0
 23 22  1  0  0  0  0
 24 23  1  0  0  0  0
 25 26  2  0  0  0  0
 27 28  1  0  0  0  0
 27 25  1  0  0  0  0
 29 28  1  0  0  0  0
 30 29  1  0  0  0  0
 31 29  1  0  0  0  0
M  END
>  <MODEL>
2

>  <REMARK>
  Name = ZINC67154842
                            x       y       z     vdW  Elec       q    Type
                         _______ _______ _______ _____ _____    ______ ____

>  <TORSDO>
F 11

>  <minimizedAffinity>
-8.3713840556988721

$$$$
ZINC67154842
 OpenBabel10211215353D

 31 32  0  0  1  0  0  0  0  0999 V2000
   51.5650   53.0720   22.2110 C   0  0  0  0  0  0  0  0  0  0  0  0
   51.5970   53.5860   20.7700 C   0  0  2  0  0  0  0  0  0  0  0  0
   50.5010   54.6030   20.5750 C   0  0  0  0  0  0  0  0  0  0  0  0
   49.3940   54.2850   19.8110 C   0  0  0  0  0  0  0  0  0  0  0  0
   48.3890   55.2150   19.6290 C   0  0  0  0  0  0  0  0  0  0  0  0
   48.4910   56.4690   20.2160 C   0  0  0  0  0  0  0  0  0  0  0  0
   49.6030   56.7840   20.9840 C   0  0  0  0  0  0  0  0  0  0  0  0
   50.6030   55.8480   21.1660 C   0  0  0  0  0  0  0  0  0  0  0  0
   47.5030   57.3860   20.0400 O   0  0  0  0  0  0  0  0  0  0  0  0
   47.8620   58.6090   19.3940 C   0  0  0  0  0  0  0  0  0  0  0  0
   47.3520   58.5960   17.9760 C   0  0  0  0  0  0  0  0  0  0  0  0
   47.7150   57.6030   17.1400 N   0  0  0  0  0  0  0  0  0  0  0  0
   48.3030   56.8970   17.4500 H   0  0  0  0  0  0  0  0  0  0  0  0
   46.6170   59.4780   17.5870 O   0  0  0  0  0  0  0  0  0  0  0  0
   47.2190   57.5900   15.7610 C   0  0  0  0  0  0  0  0  0  0  0  0
   46.7320   56.2530   15.1980 C   0  0  0  0  0  0  0  0  0  0  0  0
   48.0570   56.8480   14.7160 C   0  0  0  0  0  0  0  0  0  0  0  0
   51.3950   52.4660   19.8480 N   0  0  0  0  0  0  0  0  0  0  0  0
   50.7190   51.7960   20.0390 H   0  0  0  0  0  0  0  0  0  0  0  0
   52.1460   52.3660   18.7330 C   0  0  0  0  0  0  0  0  0  0  0  0
   52.9910   53.2040   18.4950 O   0  0  0  0  0  0  0  0  0  0  0  0
   51.9370   51.2140   17.7840 C   0  0  0  0  0  0  0  0  0  0  0  0
   50.5080   51.0750   17.4920 N   0  0  0  0  0  0  0  0  0  0  0  0
   50.1020   51.6130   16.7950 H   0  0  0  0  0  0  0  0  0  0  0  0
   49.7600   50.2010   18.1920 C   0  0  0  0  0  0  0  0  0  0  0  0
   50.2690   49.5290   19.0650 O   0  0  0  0  0  0  0  0  0  0  0  0
   48.2910   50.0580   17.8920 C   0  0  0  0  0  0  0  0  0  0  0  0
   47.7310   48.8490   18.6460 C   0  0  0  0  0  0  0  0  0  0  0  0
   46.4660   48.3520   17.9450 C   0  0  0  0  0  0  0  0  0  0  0  0
   45.6780   49.5480   17.4060 C   0  0  0  0  0  0  0  0  0  0  0  0
   45.6010   47.5790   18.9420 C   0  0  0  0  0  0  0  0  0  0  0  0
  2 18  1  1  0  0  0
  2  1  1  0  0  0  0
  3  2  1  0  0  0  0
  3  8  2  0  0  0  0
  4  3  1  0  0  0  0
  5  4  2  0  0  0  0
  5  6  1  0  0  0  0
  6  7  2  0  0  0  0
  7  8  1  0  0  0  0
  9  6  1  0  0  0  0
 10  9  1  0  0  0  0
 11 10  1  0  0  0  0
 12 13  1  0  0  0  0
 12 11  1  0  0  0  0
 14 11  2  0  0  0  0
 15 12  1  0  0  0  0
 16 15  1  0  0  0  0
 17 16  1  0  0  0  0
 17 15  1  0  0  0  0
 18 19  1  0  0  0  0
 20 18  1  0  0  0  0
 21 20  2  0  0  0  0
 22 20  1  0  0  0  0
 23 22  1  0  0  0  0
 23 25  1  0  0  0  0
 24 23  1  0  0  0  0
 25 26  2  0  0  0  0
 27 25  1  0  0  0  0
 27 28  1  0  0  0  0
 29 28  1  0  0  0  0
 29 31  1  0  0  0  0
 30 29  1  0  0  0  0
M  END
>  <MODEL>
3

>  <REMARK>
  Name = ZINC67154842
                            x       y       z     vdW  Elec       q    Type
                         _______ _______ _______ _____ _____    ______ ____

>  <TORSDO>
F 11

>  <minimizedAffinity>
-8.2306523988179325

$$$$
ZINC67154842
 OpenBabel10211215353D

 31 32  0  0  1  0  0  0  0  0999 V2000
   51.7260   53.3580   22.1650 C   0  0  0  0  0  0  0  0  0  0  0  0
   51.5880   53.7750   20.6990 C   0  0  2  0  0  0  0  0  0  0  0  0
   50.4580   54.7630   20.5620 C   0  0  0  0  0  0  0  0  0  0  0  0
   50.5440   55.9990   21.1740 C   0  0  0  0  0  0  0  0  0  0  0  0
   49.5090   56.9060   21.0510 C   0  0  0  0  0  0  0  0  0  0  0  0
   48.3840   56.5750   20.3100 C   0  0  0  0  0  0  0  0  0  0  0  0
   48.3010   55.3340   19.6960 C   0  0  0  0  0  0  0  0  0  0  0  0
   49.3410   54.4330   19.8190 C   0  0  0  0  0  0  0  0  0  0  0  0
   47.3640   57.4660   20.1860 O   0  0  0  0  0  0  0  0  0  0  0  0
   47.6810   58.8450   20.3860 C   0  0  0  0  0  0  0  0  0  0  0  0
   47.2830   59.6330   19.1650 C   0  0  0  0  0  0  0  0  0  0  0  0
   46.6200   60.7990   19.3030 N   0  0  0  0  0  0  0  0  0  0  0  0
   46.4000   61.1310   20.1870 H   0  0  0  0  0  0  0  0  0  0  0  0
   47.5580   59.2190   18.0600 O   0  0  0  0  0  0  0  0  0  0  0  0
   46.2340   61.5660   18.1150 C   0  0  0  0  0  0  0  0  0  0  0  0
   47.0320   62.8330   17.8030 C   0  0  0  0  0  0  0  0  0  0  0  0
   45.6020   62.9420   18.3370 C   0  0  0  0  0  0  0  0  0  0  0  0
   51.3070   52.5940   19.8790 N   0  0  0  0  0  0  0  0  0  0  0  0
   50.6560   51.9400   20.1790 H   0  0  0  0  0  0  0  0  0  0  0  0
   51.9510   52.4170   18.7090 C   0  0  0  0  0  0  0  0  0  0  0  0
   52.7650   53.2350   18.3350 O   0  0  0  0  0  0  0  0  0  0  0  0
   51.6610   51.2020   17.8650 C   0  0  0  0  0  0  0  0  0  0  0  0
   50.3370   51.3380   17.2530 N   0  0  0  0  0  0  0  0  0  0  0  0
   50.2350   51.8300   16.4240 H   0  0  0  0  0  0  0  0  0  0  0  0
   49.2620   50.7780   17.8420 C   0  0  0  0  0  0  0  0  0  0  0  0
   49.3900   50.1630   18.8800 O   0  0  0  0  0  0  0  0  0  0  0  0
   47.9000   50.9180   17.2120 C   0  0  0  0  0  0  0  0  0  0  0  0
   47.3750   49.5340   16.8220 C   0  0  0  0  0  0  0  0  0  0  0  0
   46.1560   49.1910   17.6800 C   0  0  0  0  0  0  0  0  0  0  0  0
   46.5460   48.1410   18.7230 C   0  0  0  0  0  0  0  0  0  0  0  0
   45.0450   48.6340   16.7880 C   0  0  0  0  0  0  0  0  0  0  0  0
  2 18  1  1  0  0  0
  2  1  1  0  0  0  0
  3  2  1  0  0  0  0
  3  4  2  0  0  0  0
  5  4  1  0  0  0  0
  6  5  2  0  0  0  0
  7  8  2  0  0  0  0
  7  6  1  0  0  0  0
  8  3  1  0  0  0  0
  9  6  1  0  0  0  0
  9 10  1  0  0  0  0
 11 12  1  0  0  0  0
 11 10  1  0  0  0  0
 12 13  1  0  0  0  0
 14 11  2  0  0  0  0
 15 17  1  0  0  0  0
 15 12  1  0  0  0  0
 16 15  1  0  0  0  0
 16 17  1  0  0  0  0
 18 19  1  0  0  0  0
 20 18  1  0  0  0  0
 21 20  2  0  0  0  0
 22 20  1  0  0  0  0
 23 25  1  0  0  0  0
 23 22  1  0  0  0  0
 24 23  1  0  0  0  0
 25 26  2  0  0  0  0
 27 25  1  0  0  0  0
 28 27  1  0  0  0  0
 28 29  1  0  0  0  0
 29 30  1  0  0  0  0
 31 29  1  0  0  0  0
M  END
>  <MODEL>
4

>  <REMARK>
  Name = ZINC67154842
                            x       y       z     vdW  Elec       q    Type
                         _______ _______ _______ _____ _____    ______ ____

>  <TORSDO>
F 11

>  <minimizedAffinity>
-8.0731651389924082

$$$$
ZINC67154842
 OpenBabel10211215353D

 31 32  0  0  1  0  0  0  0  0999 V2000
   51.8000   55.4490   23.2380 C   0  0  0  0  0  0  0  0  0  0  0  0
   51.4410   55.0490   21.8050 C   0  0  2  0  0  0  0  0  0  0  0  0
   50.3350   55.9380   21.2970 C   0  0  0  0  0  0  0  0  0  0  0  0
   50.1510   57.1930   21.8470 C   0  0  0  0  0  0  0  0  0  0  0  0
   49.1370   58.0090   21.3840 C   0  0  0  0  0  0  0  0  0  0  0  0
   48.3050   57.5690   20.3640 C   0  0  0  0  0  0  0  0  0  0  0  0
   48.4940   56.3100   19.8130 C   0  0  0  0  0  0  0  0  0  0  0  0
   49.5120   55.4990   20.2770 C   0  0  0  0  0  0  0  0  0  0  0  0
   47.3080   58.3710   19.9060 O   0  0  0  0  0  0  0  0  0  0  0  0
   47.3760   58.7730   18.5360 C   0  0  0  0  0  0  0  0  0  0  0  0
   47.0880   60.2480   18.4320 C   0  0  0  0  0  0  0  0  0  0  0  0
   45.8670   60.7200   18.7540 N   0  0  0  0  0  0  0  0  0  0  0  0
   45.1750   60.1110   19.0540 H   0  0  0  0  0  0  0  0  0  0  0  0
   47.9530   61.0110   18.0560 O   0  0  0  0  0  0  0  0  0  0  0  0
   45.5860   62.1550   18.6530 C   0  0  0  0  0  0  0  0  0  0  0  0
   45.8250   63.0110   19.8980 C   0  0  0  0  0  0  0  0  0  0  0  0
   44.3970   62.7000   19.4470 C   0  0  0  0  0  0  0  0  0  0  0  0
   50.9950   53.6530   21.7850 N   0  0  0  0  0  0  0  0  0  0  0  0
   50.3020   53.3570   22.3960 H   0  0  0  0  0  0  0  0  0  0  0  0
   51.5440   52.7820   20.9160 C   0  0  0  0  0  0  0  0  0  0  0  0
   52.4100   53.1530   20.1510 O   0  0  0  0  0  0  0  0  0  0  0  0
   51.0840   51.3470   20.8950 C   0  0  0  0  0  0  0  0  0  0  0  0
   50.3880   51.0760   19.6350 N   0  0  0  0  0  0  0  0  0  0  0  0
   50.0600   51.8110   19.0950 H   0  0  0  0  0  0  0  0  0  0  0  0
   50.2020   49.8050   19.2280 C   0  0  0  0  0  0  0  0  0  0  0  0
   50.6110   48.8850   19.9050 O   0  0  0  0  0  0  0  0  0  0  0  0
   49.4860   49.5260   17.9330 C   0  0  0  0  0  0  0  0  0  0  0  0
   48.1980   50.3510   17.8740 C   0  0  0  0  0  0  0  0  0  0  0  0
   47.0230   49.4370   17.5170 C   0  0  0  0  0  0  0  0  0  0  0  0
   46.7690   48.4610   18.6680 C   0  0  0  0  0  0  0  0  0  0  0  0
   47.3570   48.6520   16.2470 C   0  0  0  0  0  0  0  0  0  0  0  0
  2  3  1  1  0  0  0
  2  1  1  0  0  0  0
  3  4  2  0  0  0  0
  5  4  1  0  0  0  0
  6  5  2  0  0  0  0
  7  8  2  0  0  0  0
  7  6  1  0  0  0  0
  8  3  1  0  0  0  0
  9  6  1  0  0  0  0
 10  9  1  0  0  0  0
 11 10  1  0  0  0  0
 11 12  1  0  0  0  0
 12 13  1  0  0  0  0
 14 11  2  0  0  0  0
 15 12  1  0  0  0  0
 15 17  1  0  0  0  0
 15 16  1  0  0  0  0
 17 16  1  0  0  0  0
 18  2  1  0  0  0  0
 18 19  1  0  0  0  0
 20 18  1  0  0  0  0
 21 20  2  0  0  0  0
 22 20  1  0  0  0  0
 23 22  1  0  0  0  0
 24 23  1  0  0  0  0
 25 23  1  0  0  0  0
 25 26  2  0  0  0  0
 27 25  1  0  0  0  0
 28 27  1  0  0  0  0
 29 28  1  0  0  0  0
 29 30  1  0  0  0  0
 31 29  1  0  0  0  0
M  END
>  <MODEL>
5

>  <REMARK>
  Name = ZINC67154842
                            x       y       z     vdW  Elec       q    Type
                         _______ _______ _______ _____ _____    ______ ____

>  <TORSDO>
F 11

>  <minimizedAffinity>
-7.9126072530415543

$$$$
ZINC67154842
 OpenBabel10211215353D

 31 32  0  0  1  0  0  0  0  0999 V2000
   50.3940   49.3720   19.7460 C   0  0  0  0  0  0  0  0  0  0  0  0
   50.7600   50.4380   18.7110 C   0  0  2  0  0  0  0  0  0  0  0  0
   51.1960   51.6960   19.4180 C   0  0  0  0  0  0  0  0  0  0  0  0
   50.8180   51.9170   20.7290 C   0  0  0  0  0  0  0  0  0  0  0  0
   51.2150   53.0700   21.3790 C   0  0  0  0  0  0  0  0  0  0  0  0
   51.9960   54.0050   20.7140 C   0  0  0  0  0  0  0  0  0  0  0  0
   52.3750   53.7790   19.3990 C   0  0  0  0  0  0  0  0  0  0  0  0
   51.9790   52.6220   18.7550 C   0  0  0  0  0  0  0  0  0  0  0  0
   52.3890   55.1390   21.3510 O   0  0  0  0  0  0  0  0  0  0  0  0
   51.4740   55.7040   22.2930 C   0  0  0  0  0  0  0  0  0  0  0  0
   50.7550   56.8670   21.6590 C   0  0  0  0  0  0  0  0  0  0  0  0
   49.5560   56.6780   21.0740 N   0  0  0  0  0  0  0  0  0  0  0  0
   49.1550   55.7950   21.0620 H   0  0  0  0  0  0  0  0  0  0  0  0
   51.2560   57.9710   21.6740 O   0  0  0  0  0  0  0  0  0  0  0  0
   48.8560   57.8090   20.4570 C   0  0  0  0  0  0  0  0  0  0  0  0
   47.3420   57.8950   20.6550 C   0  0  0  0  0  0  0  0  0  0  0  0
   47.9140   57.5050   19.2900 C   0  0  0  0  0  0  0  0  0  0  0  0
   49.5930   50.7270   17.8750 N   0  0  0  0  0  0  0  0  0  0  0  0
   48.7480   50.9680   18.2870 H   0  0  0  0  0  0  0  0  0  0  0  0
   49.6910   50.6580   16.5320 C   0  0  0  0  0  0  0  0  0  0  0  0
   50.7480   50.3560   16.0170 O   0  0  0  0  0  0  0  0  0  0  0  0
   48.4900   50.9560   15.6720 C   0  0  0  0  0  0  0  0  0  0  0  0
   47.3530   50.1530   16.1270 N   0  0  0  0  0  0  0  0  0  0  0  0
   46.9280   50.3510   16.9760 H   0  0  0  0  0  0  0  0  0  0  0  0
   46.8970   49.1380   15.3660 C   0  0  0  0  0  0  0  0  0  0  0  0
   47.4290   48.8900   14.3040 O   0  0  0  0  0  0  0  0  0  0  0  0
   45.7270   48.3120   15.8340 C   0  0  0  0  0  0  0  0  0  0  0  0
   46.1650   47.4240   17.0010 C   0  0  0  0  0  0  0  0  0  0  0  0
   45.7640   48.0840   18.3220 C   0  0  0  0  0  0  0  0  0  0  0  0
   47.0200   48.3870   19.1420 C   0  0  0  0  0  0  0  0  0  0  0  0
   44.8570   47.1380   19.1100 C   0  0  0  0  0  0  0  0  0  0  0  0
  2 18  1  1  0  0  0
  2  3  1  0  0  0  0
  2  1  1  0  0  0  0
  3  4  2  0  0  0  0
  4  5  1  0  0  0  0
  6  9  1  0  0  0  0
  6  5  2  0  0  0  0
  7  6  1  0  0  0  0
  8  7  2  0  0  0  0
  8  3  1  0  0  0  0
  9 10  1  0  0  0  0
 11 14  2  0  0  0  0
 11 10  1  0  0  0  0
 12 11  1  0  0  0  0
 13 12  1  0  0  0  0
 15 16  1  0  0  0  0
 15 12  1  0  0  0  0
 17 15  1  0  0  0  0
 17 16  1  0  0  0  0
 18 19  1  0  0  0  0
 20 18  1  0  0  0  0
 21 20  2  0  0  0  0
 22 23  1  0  0  0  0
 22 20  1  0  0  0  0
 23 24  1  0  0  0  0
 25 27  1  0  0  0  0
 25 23  1  0  0  0  0
 26 25  2  0  0  0  0
 27 28  1  0  0  0  0
 28 29  1  0  0  0  0
 29 31  1  0  0  0  0
 29 30  1  0  0  0  0
M  END
>  <MODEL>
6

>  <REMARK>
  Name = ZINC67154842
                            x       y       z     vdW  Elec       q    Type
                         _______ _______ _______ _____ _____    ______ ____

>  <TORSDO>
F 11

>  <minimizedAffinity>
-7.8835614314972799

$$$$
ZINC67154842
 OpenBabel10211215353D

 31 32  0  0  1  0  0  0  0  0999 V2000
   52.1480   57.4170   21.5230 C   0  0  0  0  0  0  0  0  0  0  0  0
   50.9550   56.5150   21.2030 C   0  0  2  0  0  0  0  0  0  0  0  0
   51.4310   55.0950   21.0300 C   0  0  0  0  0  0  0  0  0  0  0  0
   51.9790   54.6930   19.8260 C   0  0  0  0  0  0  0  0  0  0  0  0
   52.4160   53.3920   19.6650 C   0  0  0  0  0  0  0  0  0  0  0  0
   52.3040   52.4890   20.7130 C   0  0  0  0  0  0  0  0  0  0  0  0
   51.7550   52.8960   21.9200 C   0  0  0  0  0  0  0  0  0  0  0  0
   51.3240   54.2000   22.0780 C   0  0  0  0  0  0  0  0  0  0  0  0
   52.7330   51.2090   20.5570 O   0  0  0  0  0  0  0  0  0  0  0  0
   52.3670   50.5460   19.3450 C   0  0  0  0  0  0  0  0  0  0  0  0
   51.0920   49.7730   19.5620 C   0  0  0  0  0  0  0  0  0  0  0  0
   50.2280   49.6000   18.5420 N   0  0  0  0  0  0  0  0  0  0  0  0
   50.4270   49.9720   17.6690 H   0  0  0  0  0  0  0  0  0  0  0  0
   50.8420   49.3080   20.6540 O   0  0  0  0  0  0  0  0  0  0  0  0
   48.9870   48.8490   18.7530 C   0  0  0  0  0  0  0  0  0  0  0  0
   48.3640   48.1600   17.5370 C   0  0  0  0  0  0  0  0  0  0  0  0
   47.7070   49.4090   18.1280 C   0  0  0  0  0  0  0  0  0  0  0  0
   50.3170   56.9700   19.9650 N   0  0  0  0  0  0  0  0  0  0  0  0
   50.8610   57.2960   19.2300 H   0  0  0  0  0  0  0  0  0  0  0  0
   48.9750   56.9360   19.8460 C   0  0  0  0  0  0  0  0  0  0  0  0
   48.2950   56.5290   20.7650 O   0  0  0  0  0  0  0  0  0  0  0  0
   48.3180   57.4050   18.5730 C   0  0  0  0  0  0  0  0  0  0  0  0
   47.7200   58.7240   18.7900 N   0  0  0  0  0  0  0  0  0  0  0  0
   47.8700   59.1930   19.6250 H   0  0  0  0  0  0  0  0  0  0  0  0
   46.9610   59.2850   17.8280 C   0  0  0  0  0  0  0  0  0  0  0  0
   46.7730   58.6980   16.7830 O   0  0  0  0  0  0  0  0  0  0  0  0
   46.3450   60.6420   18.0500 C   0  0  0  0  0  0  0  0  0  0  0  0
   46.9380   61.2710   19.3130 C   0  0  0  0  0  0  0  0  0  0  0  0
   46.5210   62.7410   19.3950 C   0  0  0  0  0  0  0  0  0  0  0  0
   45.0190   62.8300   19.6740 C   0  0  0  0  0  0  0  0  0  0  0  0
   46.8350   63.4340   18.0670 C   0  0  0  0  0  0  0  0  0  0  0  0
  2 18  1  6  0  0  0
  2  1  1  0  0  0  0
  3  2  1  0  0  0  0
  3  8  2  0  0  0  0
  4  3  1  0  0  0  0
  5  4  2  0  0  0  0
  5  6  1  0  0  0  0
  6  7  2  0  0  0  0
  7  8  1  0  0  0  0
  9  6  1  0  0  0  0
 10 11  1  0  0  0  0
 10  9  1  0  0  0  0
 11 14  2  0  0  0  0
 12 15  1  0  0  0  0
 12 11  1  0  0  0  0
 13 12  1  0  0  0  0
 16 17  1  0  0  0  0
 16 15  1  0  0  0  0
 17 15  1  0  0  0  0
 19 18  1  0  0  0  0
 20 18  1  0  0  0  0
 20 21  2  0  0  0  0
 22 23  1  0  0  0  0
 22 20  1  0  0  0  0
 23 24  1  0  0  0  0
 25 27  1  0  0  0  0
 25 23  1  0  0  0  0
 26 25  2  0  0  0  0
 27 28  1  0  0  0  0
 28 29  1  0  0  0  0
 29 30  1  0  0  0  0
 31 29  1  0  0  0  0
M  END
>  <MODEL>
7

>  <REMARK>
  Name = ZINC67154842
                            x       y       z     vdW  Elec       q    Type
                         _______ _______ _______ _____ _____    ______ ____

>  <TORSDO>
F 11

>  <minimizedAffinity>
-7.7124449791451397

$$$$
ZINC67154842
 OpenBabel10211215353D

 31 32  0  0  1  0  0  0  0  0999 V2000
   50.3150   49.4500   20.1280 C   0  0  0  0  0  0  0  0  0  0  0  0
   50.6210   50.5330   19.0910 C   0  0  2  0  0  0  0  0  0  0  0  0
   51.0920   51.7810   19.7930 C   0  0  0  0  0  0  0  0  0  0  0  0
   51.0450   51.8570   21.1720 C   0  0  0  0  0  0  0  0  0  0  0  0
   51.4750   53.0010   21.8180 C   0  0  0  0  0  0  0  0  0  0  0  0
   51.9570   54.0720   21.0800 C   0  0  0  0  0  0  0  0  0  0  0  0
   52.0050   53.9920   19.6950 C   0  0  0  0  0  0  0  0  0  0  0  0
   51.5780   52.8450   19.0550 C   0  0  0  0  0  0  0  0  0  0  0  0
   52.3810   55.1980   21.7120 O   0  0  0  0  0  0  0  0  0  0  0  0
   51.4110   55.9190   22.4750 C   0  0  0  0  0  0  0  0  0  0  0  0
   50.7320   56.9330   21.5920 C   0  0  0  0  0  0  0  0  0  0  0  0
   49.3870   56.9640   21.5140 N   0  0  0  0  0  0  0  0  0  0  0  0
   48.8560   56.3340   22.0250 H   0  0  0  0  0  0  0  0  0  0  0  0
   51.3950   57.7210   20.9520 O   0  0  0  0  0  0  0  0  0  0  0  0
   48.7260   57.9510   20.6550 C   0  0  0  0  0  0  0  0  0  0  0  0
   47.2020   57.8760   20.5370 C   0  0  0  0  0  0  0  0  0  0  0  0
   48.0820   57.4440   19.3620 C   0  0  0  0  0  0  0  0  0  0  0  0
   49.4090   50.8320   18.3240 N   0  0  0  0  0  0  0  0  0  0  0  0
   48.5910   51.0770   18.7860 H   0  0  0  0  0  0  0  0  0  0  0  0
   49.4300   50.7680   16.9780 C   0  0  0  0  0  0  0  0  0  0  0  0
   50.4530   50.4610   16.4020 O   0  0  0  0  0  0  0  0  0  0  0  0
   48.1830   51.0750   16.1900 C   0  0  0  0  0  0  0  0  0  0  0  0
   47.6750   49.8430   15.5810 N   0  0  0  0  0  0  0  0  0  0  0  0
   48.1020   49.4820   14.7880 H   0  0  0  0  0  0  0  0  0  0  0  0
   46.6150   49.2120   16.1220 C   0  0  0  0  0  0  0  0  0  0  0  0
   46.0800   49.6650   17.1130 O   0  0  0  0  0  0  0  0  0  0  0  0
   46.0910   47.9450   15.4970 C   0  0  0  0  0  0  0  0  0  0  0  0
   46.1930   48.0490   13.9730 C   0  0  0  0  0  0  0  0  0  0  0  0
   44.7880   48.0550   13.3680 C   0  0  0  0  0  0  0  0  0  0  0  0
   43.8100   47.3960   14.3440 C   0  0  0  0  0  0  0  0  0  0  0  0
   44.7970   47.2750   12.0520 C   0  0  0  0  0  0  0  0  0  0  0  0
  2 18  1  1  0  0  0
  2  3  1  0  0  0  0
  2  1  1  0  0  0  0
  3  4  2  0  0  0  0
  4  5  1  0  0  0  0
  6  9  1  0  0  0  0
  6  5  2  0  0  0  0
  7  6  1  0  0  0  0
  8  7  2  0  0  0  0
  8  3  1  0  0  0  0
  9 10  1  0  0  0  0
 11 10  1  0  0  0  0
 12 11  1  0  0  0  0
 12 13  1  0  0  0  0
 14 11  2  0  0  0  0
 15 12  1  0  0  0  0
 16 15  1  0  0  0  0
 17 16  1  0  0  0  0
 17 15  1  0  0  0  0
 18 19  1  0  0  0  0
 20 18  1  0  0  0  0
 21 20  2  0  0  0  0
 22 20  1  0  0  0  0
 23 25  1  0  0  0  0
 23 22  1  0  0  0  0
 24 23  1  0  0  0  0
 25 26  2  0  0  0  0
 27 25  1  0  0  0  0
 28 27  1  0  0  0  0
 29 28  1  0  0  0  0
 29 30  1  0  0  0  0
 31 29  1  0  0  0  0
M  END
>  <MODEL>
8

>  <REMARK>
  Name = ZINC67154842
                            x       y       z     vdW  Elec       q    Type
                         _______ _______ _______ _____ _____    ______ ____

>  <TORSDO>
F 11

>  <minimizedAffinity>
-7.5536150466474705

$$$$
ZINC67154842
 OpenBabel10211215353D

 31 32  0  0  1  0  0  0  0  0999 V2000
   49.1770   58.2410   22.0370 C   0  0  0  0  0  0  0  0  0  0  0  0
   48.5830   57.4110   20.8960 C   0  0  2  0  0  0  0  0  0  0  0  0
   49.3680   56.1330   20.7440 C   0  0  0  0  0  0  0  0  0  0  0  0
   50.5340   55.9490   21.4620 C   0  0  0  0  0  0  0  0  0  0  0  0
   51.2550   54.7790   21.3240 C   0  0  0  0  0  0  0  0  0  0  0  0
   50.8060   53.7870   20.4640 C   0  0  0  0  0  0  0  0  0  0  0  0
   49.6340   53.9730   19.7450 C   0  0  0  0  0  0  0  0  0  0  0  0
   48.9150   55.1440   19.8910 C   0  0  0  0  0  0  0  0  0  0  0  0
   51.5140   52.6340   20.3260 O   0  0  0  0  0  0  0  0  0  0  0  0
   51.4830   52.0030   19.0440 C   0  0  0  0  0  0  0  0  0  0  0  0
   50.9390   50.6050   19.1860 C   0  0  0  0  0  0  0  0  0  0  0  0
   49.6780   50.3310   18.8000 N   0  0  0  0  0  0  0  0  0  0  0  0
   49.1200   51.0330   18.4300 H   0  0  0  0  0  0  0  0  0  0  0  0
   51.6360   49.7270   19.6490 O   0  0  0  0  0  0  0  0  0  0  0  0
   49.1490   48.9710   18.9380 C   0  0  0  0  0  0  0  0  0  0  0  0
   48.6720   48.2660   17.6660 C   0  0  0  0  0  0  0  0  0  0  0  0
   47.6520   48.7670   18.6910 C   0  0  0  0  0  0  0  0  0  0  0  0
   48.6510   58.1770   19.6490 N   0  0  0  0  0  0  0  0  0  0  0  0
   49.4470   58.1340   19.0960 H   0  0  0  0  0  0  0  0  0  0  0  0
   47.6060   58.9390   19.2680 C   0  0  0  0  0  0  0  0  0  0  0  0
   46.6110   58.9910   19.9600 O   0  0  0  0  0  0  0  0  0  0  0  0
   47.6750   59.7260   17.9850 C   0  0  0  0  0  0  0  0  0  0  0  0
   47.6110   61.1590   18.2880 N   0  0  0  0  0  0  0  0  0  0  0  0
   48.3930   61.6160   18.6360 H   0  0  0  0  0  0  0  0  0  0  0  0
   46.4670   61.8390   18.0830 C   0  0  0  0  0  0  0  0  0  0  0  0
   45.4890   61.2670   17.6490 O   0  0  0  0  0  0  0  0  0  0  0  0
   46.4000   63.3120   18.3940 C   0  0  0  0  0  0  0  0  0  0  0  0
   47.3050   64.0790   17.4270 C   0  0  0  0  0  0  0  0  0  0  0  0
   46.4430   64.8500   16.4250 C   0  0  0  0  0  0  0  0  0  0  0  0
   47.2550   65.1210   15.1560 C   0  0  0  0  0  0  0  0  0  0  0  0
   46.0080   66.1790   17.0450 C   0  0  0  0  0  0  0  0  0  0  0  0
  2 18  1  6  0  0  0
  2  1  1  0  0  0  0
  3  2  1  0  0  0  0
  3  4  2  0  0  0  0
  5  4  1  0  0  0  0
  6  5  2  0  0  0  0
  7  8  2  0  0  0  0
  7  6  1  0  0  0  0
  8  3  1  0  0  0  0
  9  6  1  0  0  0  0
 10 11  1  0  0  0  0
 10  9  1  0  0  0  0
 11 14  2  0  0  0  0
 12 15  1  0  0  0  0
 12 11  1  0  0  0  0
 13 12  1  0  0  0  0
 16 17  1  0  0  0  0
 16 15  1  0  0  0  0
 17 15  1  0  0  0  0
 19 18  1  0  0  0  0
 20 18  1  0  0  0  0
 20 21  2  0  0  0  0
 22 23  1  0  0  0  0
 22 20  1  0  0  0  0
 23 24  1  0  0  0  0
 25 23  1  0  0  0  0
 25 27  1  0  0  0  0
 26 25  2  0  0  0  0
 28 27  1  0  0  0  0
 29 31  1  0  0  0  0
 29 28  1  0  0  0  0
 30 29  1  0  0  0  0
M  END
>  <MODEL>
9

>  <REMARK>
  Name = ZINC67154842
                            x       y       z     vdW  Elec       q    Type
                         _______ _______ _______ _____ _____    ______ ____

>  <TORSDO>
F 11

>  <minimizedAffinity>
-7.3929010677133284

$$$$
ZINC45942685
 OpenBabel10211215373D

 30 31  0  0  0  0  0  0  0  0999 V2000
   51.8050   52.3070   17.8930 N   0  0  0  0  0  0  0  0  0  0  0  0
   50.9320   52.7290   17.8810 H   0  0  0  0  0  0  0  0  0  0  0  0
   52.0010   51.1470   17.2360 C   0  0  0  0  0  0  0  0  0  0  0  0
   50.9850   50.5720   16.5630 N   0  0  0  0  0  0  0  0  0  0  0  0
   51.1260   49.7370   16.0910 H   0  0  0  0  0  0  0  0  0  0  0  0
   53.0960   50.6170   17.2510 O   0  0  0  0  0  0  0  0  0  0  0  0
   49.7230   51.1820   16.5460 N   0  0  0  0  0  0  0  0  0  0  0  0
   49.6340   52.1180   16.7840 H   0  0  0  0  0  0  0  0  0  0  0  0
   48.6340   50.4670   16.1980 C   0  0  0  0  0  0  0  0  0  0  0  0
   48.4720   49.8750   14.6000 S   0  0  0  0  0  0  0  0  0  0  0  0
   47.6730   50.2190   17.1100 N   0  0  0  0  0  0  0  0  0  0  0  0
   47.5440   50.8250   17.8570 H   0  0  0  0  0  0  0  0  0  0  0  0
   46.8220   49.0350   16.9730 C   0  0  0  0  0  0  0  0  0  0  0  0
   45.3480   49.4110   17.2360 C   0  0  0  0  0  0  0  0  0  0  0  0
   44.7730   48.1840   17.9880 C   0  0  0  0  0  0  0  0  0  0  0  0
   45.9490   47.7600   18.9000 C   0  0  0  0  0  0  0  0  0  0  0  0
   47.2030   47.9850   18.0310 C   0  0  0  0  0  0  0  0  0  0  0  0
   52.9100   52.9310   18.6240 C   0  0  0  0  0  0  0  0  0  0  0  0
   51.8280   55.3070   21.3500 C   0  0  0  0  0  0  0  0  0  0  0  0
   52.3040   54.8460   20.1290 C   0  0  0  0  0  0  0  0  0  0  0  0
   52.4000   53.4800   19.9320 C   0  0  0  0  0  0  0  0  0  0  0  0
   52.0210   52.6210   20.9550 C   0  0  0  0  0  0  0  0  0  0  0  0
   51.5720   53.0990   22.1040 N   0  0  0  0  0  0  0  0  0  0  0  0
   51.4690   54.3960   22.3220 C   0  0  0  0  0  0  0  0  0  0  0  0
   52.1110   51.2790   20.7750 O   0  0  0  0  0  0  0  0  0  0  0  0
   50.8990   50.5280   20.8760 C   0  0  0  0  0  0  0  0  0  0  0  0
   51.1050   49.1420   20.2640 C   0  0  0  0  0  0  0  0  0  0  0  0
   50.7870   48.1620   21.2110 F   0  0  0  0  0  0  0  0  0  0  0  0
   52.4420   48.9970   19.8770 F   0  0  0  0  0  0  0  0  0  0  0  0
   50.2770   48.9960   19.1470 F   0  0  0  0  0  0  0  0  0  0  0  0
  1 18  1  0  0  0  0
  2  1  1  0  0  0  0
  3  6  2  0  0  0  0
  3  1  1  0  0  0  0
  4  3  1  0  0  0  0
  5  4  1  0  0  0  0
  7  4  1  0  0  0  0
  7  8  1  0  0  0  0
  9  7  1  0  0  0  0
  9 11  1  0  0  0  0
 10  9  2  0  0  0  0
 11 12  1  0  0  0  0
 13 11  1  0  0  0  0
 13 14  1  0  0  0  0
 13 17  1  0  0  0  0
 14 15  1  0  0  0  0
 15 16  1  0  0  0  0
 17 16  1  0  0  0  0
 18 21  1  0  0  0  0
 19 24  2  0  0  0  0
 20 19  1  0  0  0  0
 21 20  2  0  0  0  0
 21 22  1  0  0  0  0
 22 23  2  0  0  0  0
 23 24  1  0  0  0  0
 25 26  1  0  0  0  0
 25 22  1  0  0  0  0
 27 26  1  0  0  0  0
 27 28  1  0  0  0  0
 29 27  1  0  0  0  0
 30 27  1  0  0  0  0
M  END
>  <MODEL>
1

>  <REMARK>
  Name = ZINC45942685
                            x       y       z     vdW  Elec       q    Type
                         _______ _______ _______ _____ _____    ______ ____

>  <TORSDO>
F 9

>  <minimizedAffinity>
-8.1165979226247753

$$$$
ZINC45942685
 OpenBabel10211215373D

 30 31  0  0  0  0  0  0  0  0999 V2000
   50.9390   53.4960   19.9010 N   0  0  0  0  0  0  0  0  0  0  0  0
   50.1510   52.9780   20.1270 H   0  0  0  0  0  0  0  0  0  0  0  0
   51.6080   53.2410   18.7590 C   0  0  0  0  0  0  0  0  0  0  0  0
   51.1820   52.2670   17.9310 N   0  0  0  0  0  0  0  0  0  0  0  0
   51.6630   52.0830   17.1100 H   0  0  0  0  0  0  0  0  0  0  0  0
   52.5960   53.8910   18.4740 O   0  0  0  0  0  0  0  0  0  0  0  0
   50.0440   51.5180   18.2580 N   0  0  0  0  0  0  0  0  0  0  0  0
   49.1860   51.9600   18.3630 H   0  0  0  0  0  0  0  0  0  0  0  0
   50.1390   50.1850   18.4280 C   0  0  0  0  0  0  0  0  0  0  0  0
   50.8990   49.5510   19.8250 S   0  0  0  0  0  0  0  0  0  0  0  0
   49.6370   49.3490   17.4960 N   0  0  0  0  0  0  0  0  0  0  0  0
   49.8730   49.4650   16.5630 H   0  0  0  0  0  0  0  0  0  0  0  0
   48.7350   48.2660   17.8940 C   0  0  0  0  0  0  0  0  0  0  0  0
   48.4840   47.3220   16.6990 C   0  0  0  0  0  0  0  0  0  0  0  0
   46.9960   46.9170   16.8420 C   0  0  0  0  0  0  0  0  0  0  0  0
   46.3300   48.2260   17.3300 C   0  0  0  0  0  0  0  0  0  0  0  0
   47.3650   48.8410   18.2950 C   0  0  0  0  0  0  0  0  0  0  0  0
   51.4020   54.5550   20.8000 C   0  0  0  0  0  0  0  0  0  0  0  0
   48.2060   56.5130   20.3560 C   0  0  0  0  0  0  0  0  0  0  0  0
   49.1260   55.4760   20.2770 C   0  0  0  0  0  0  0  0  0  0  0  0
   50.3690   55.6520   20.8590 C   0  0  0  0  0  0  0  0  0  0  0  0
   50.6530   56.8520   21.4990 C   0  0  0  0  0  0  0  0  0  0  0  0
   49.7490   57.8160   21.5540 N   0  0  0  0  0  0  0  0  0  0  0  0
   48.5550   57.6780   21.0080 C   0  0  0  0  0  0  0  0  0  0  0  0
   51.8680   57.0360   22.0730 O   0  0  0  0  0  0  0  0  0  0  0  0
   52.5900   58.2130   21.7010 C   0  0  0  0  0  0  0  0  0  0  0  0
   53.9560   57.8170   21.1390 C   0  0  0  0  0  0  0  0  0  0  0  0
   54.4110   58.8170   20.2730 F   0  0  0  0  0  0  0  0  0  0  0  0
   53.8400   56.6110   20.4370 F   0  0  0  0  0  0  0  0  0  0  0  0
   54.8660   57.6600   22.1890 F   0  0  0  0  0  0  0  0  0  0  0  0
  1  2  1  0  0  0  0
  1 18  1  0  0  0  0
  3  1  1  0  0  0  0
  4  7  1  0  0  0  0
  4  3  1  0  0  0  0
  5  4  1  0  0  0  0
  6  3  2  0  0  0  0
  7  8  1  0  0  0  0
  7  9  1  0  0  0  0
  9 10  2  0  0  0  0
 11 13  1  0  0  0  0
 11  9  1  0  0  0  0
 12 11  1  0  0  0  0
 13 17  1  0  0  0  0
 14 15  1  0  0  0  0
 14 13  1  0  0  0  0
 15 16  1  0  0  0  0
 16 17  1  0  0  0  0
 18 21  1  0  0  0  0
 19 24  1  0  0  0  0
 20 19  2  0  0  0  0
 20 21  1  0  0  0  0
 21 22  2  0  0  0  0
 22 23  1  0  0  0  0
 22 25  1  0  0  0  0
 24 23  2  0  0  0  0
 26 25  1  0  0  0  0
 27 26  1  0  0  0  0
 27 30  1  0  0  0  0
 28 27  1  0  0  0  0
 29 27  1  0  0  0  0
M  END
>  <MODEL>
2

>  <REMARK>
  Name = ZINC45942685
                            x       y       z     vdW  Elec       q    Type
                         _______ _______ _______ _____ _____    ______ ____

>  <TORSDO>
F 9

>  <minimizedAffinity>
-7.8984634234162892

$$$$
ZINC45942685
 OpenBabel10211215373D

 30 31  0  0  0  0  0  0  0  0999 V2000
   50.6770   50.2290   20.2500 N   0  0  0  0  0  0  0  0  0  0  0  0
   50.2030   50.9520   20.6900 H   0  0  0  0  0  0  0  0  0  0  0  0
   52.0070   50.0960   20.4160 C   0  0  0  0  0  0  0  0  0  0  0  0
   52.6800   50.9680   21.1930 N   0  0  0  0  0  0  0  0  0  0  0  0
   53.6380   50.8730   21.3130 H   0  0  0  0  0  0  0  0  0  0  0  0
   52.6020   49.1890   19.8660 O   0  0  0  0  0  0  0  0  0  0  0  0
   51.9960   52.0140   21.8280 N   0  0  0  0  0  0  0  0  0  0  0  0
   51.6330   51.8850   22.7180 H   0  0  0  0  0  0  0  0  0  0  0  0
   51.8410   53.1970   21.2010 C   0  0  0  0  0  0  0  0  0  0  0  0
   52.5030   53.4320   19.6400 S   0  0  0  0  0  0  0  0  0  0  0  0
   51.1650   54.1950   21.8040 N   0  0  0  0  0  0  0  0  0  0  0  0
   50.7510   54.0480   22.6690 H   0  0  0  0  0  0  0  0  0  0  0  0
   51.0550   55.5020   21.1530 C   0  0  0  0  0  0  0  0  0  0  0  0
   51.1150   56.6260   22.2100 C   0  0  0  0  0  0  0  0  0  0  0  0
   50.1160   57.6890   21.6900 C   0  0  0  0  0  0  0  0  0  0  0  0
   48.9700   56.8260   21.1090 C   0  0  0  0  0  0  0  0  0  0  0  0
   49.6900   55.6300   20.4530 C   0  0  0  0  0  0  0  0  0  0  0  0
   49.9460   49.2810   19.4070 C   0  0  0  0  0  0  0  0  0  0  0  0
   48.9790   52.0010   16.9750 C   0  0  0  0  0  0  0  0  0  0  0  0
   49.5630   51.3670   18.0640 C   0  0  0  0  0  0  0  0  0  0  0  0
   49.3330   50.0140   18.2400 C   0  0  0  0  0  0  0  0  0  0  0  0
   48.5320   49.3390   17.3290 C   0  0  0  0  0  0  0  0  0  0  0  0
   47.9930   49.9780   16.3030 N   0  0  0  0  0  0  0  0  0  0  0  0
   48.1930   51.2680   16.1080 C   0  0  0  0  0  0  0  0  0  0  0  0
   48.2990   48.0130   17.4910 O   0  0  0  0  0  0  0  0  0  0  0  0
   46.9730   47.5490   17.2280 C   0  0  0  0  0  0  0  0  0  0  0  0
   46.0540   47.9500   18.3840 C   0  0  0  0  0  0  0  0  0  0  0  0
   45.1360   46.9220   18.6270 F   0  0  0  0  0  0  0  0  0  0  0  0
   45.3640   49.1200   18.0480 F   0  0  0  0  0  0  0  0  0  0  0  0
   46.8200   48.1720   19.5330 F   0  0  0  0  0  0  0  0  0  0  0  0
  1  3  1  0  0  0  0
  1  2  1  0  0  0  0
  3  4  1  0  0  0  0
  4  5  1  0  0  0  0
  4  7  1  0  0  0  0
  6  3  2  0  0  0  0
  7  8  1  0  0  0  0
  9 11  1  0  0  0  0
  9  7  1  0  0  0  0
 10  9  2  0  0  0  0
 11 12  1  0  0  0  0
 13 11  1  0  0  0  0
 13 14  1  0  0  0  0
 15 14  1  0  0  0  0
 16 15  1  0  0  0  0
 17 16  1  0  0  0  0
 17 13  1  0  0  0  0
 18  1  1  0  0  0  0
 19 20  2  0  0  0  0
 20 21  1  0  0  0  0
 21 18  1  0  0  0  0
 22 25  1  0  0  0  0
 22 21  2  0  0  0  0
 23 22  1  0  0  0  0
 24 23  2  0  0  0  0
 24 19  1  0  0  0  0
 26 25  1  0  0  0  0
 26 27  1  0  0  0  0
 27 28  1  0  0  0  0
 27 30  1  0  0  0  0
 29 27  1  0  0  0  0
M  END
>  <MODEL>
3

>  <REMARK>
  Name = ZINC45942685
                            x       y       z     vdW  Elec       q    Type
                         _______ _______ _______ _____ _____    ______ ____

>  <TORSDO>
F 9

>  <minimizedAffinity>
-7.8839257870172874

$$$$
ZINC45942685
 OpenBabel10211215373D

 30 31  0  0  0  0  0  0  0  0999 V2000
   51.0820   53.0260   20.0550 N   0  0  0  0  0  0  0  0  0  0  0  0
   51.4410   53.7460   19.5130 H   0  0  0  0  0  0  0  0  0  0  0  0
   51.1080   53.1170   21.3990 C   0  0  0  0  0  0  0  0  0  0  0  0
   51.6320   54.2080   21.9910 N   0  0  0  0  0  0  0  0  0  0  0  0
   51.6510   54.2740   22.9590 H   0  0  0  0  0  0  0  0  0  0  0  0
   50.6570   52.2150   22.0800 O   0  0  0  0  0  0  0  0  0  0  0  0
   52.1520   55.2480   21.2090 N   0  0  0  0  0  0  0  0  0  0  0  0
   52.6580   55.0440   20.4070 H   0  0  0  0  0  0  0  0  0  0  0  0
   51.9490   56.5300   21.5710 C   0  0  0  0  0  0  0  0  0  0  0  0
   53.2530   57.6390   21.5630 S   0  0  0  0  0  0  0  0  0  0  0  0
   50.7180   56.9400   21.9390 N   0  0  0  0  0  0  0  0  0  0  0  0
   50.4030   56.7790   22.8420 H   0  0  0  0  0  0  0  0  0  0  0  0
   49.8560   57.6270   20.9740 C   0  0  0  0  0  0  0  0  0  0  0  0
   48.6310   58.2270   21.6950 C   0  0  0  0  0  0  0  0  0  0  0  0
   47.4680   58.0340   20.6900 C   0  0  0  0  0  0  0  0  0  0  0  0
   47.7750   56.6470   20.0740 C   0  0  0  0  0  0  0  0  0  0  0  0
   49.3110   56.6220   19.9440 C   0  0  0  0  0  0  0  0  0  0  0  0
   50.5110   51.8400   19.4130 C   0  0  0  0  0  0  0  0  0  0  0  0
   48.4010   53.9570   17.1070 C   0  0  0  0  0  0  0  0  0  0  0  0
   49.3210   53.6090   18.0880 C   0  0  0  0  0  0  0  0  0  0  0  0
   49.5220   52.2680   18.3580 C   0  0  0  0  0  0  0  0  0  0  0  0
   48.8020   51.3180   17.6440 C   0  0  0  0  0  0  0  0  0  0  0  0
   47.9350   51.6890   16.7160 N   0  0  0  0  0  0  0  0  0  0  0  0
   47.7210   52.9600   16.4360 C   0  0  0  0  0  0  0  0  0  0  0  0
   48.9910   49.9990   17.8990 O   0  0  0  0  0  0  0  0  0  0  0  0
   48.1580   49.0760   17.1940 C   0  0  0  0  0  0  0  0  0  0  0  0
   47.0480   48.5780   18.1220 C   0  0  0  0  0  0  0  0  0  0  0  0
   46.7290   47.2550   17.7980 F   0  0  0  0  0  0  0  0  0  0  0  0
   45.9140   49.3820   17.9660 F   0  0  0  0  0  0  0  0  0  0  0  0
   47.4860   48.6410   19.4490 F   0  0  0  0  0  0  0  0  0  0  0  0
  1  3  1  0  0  0  0
  2  1  1  0  0  0  0
  3  4  1  0  0  0  0
  3  6  2  0  0  0  0
  4  5  1  0  0  0  0
  7  9  1  0  0  0  0
  7  4  1  0  0  0  0
  8  7  1  0  0  0  0
  9 11  1  0  0  0  0
 10  9  2  0  0  0  0
 11 12  1  0  0  0  0
 13 14  1  0  0  0  0
 13 11  1  0  0  0  0
 15 14  1  0  0  0  0
 16 15  1  0  0  0  0
 17 16  1  0  0  0  0
 17 13  1  0  0  0  0
 18  1  1  0  0  0  0
 19 20  2  0  0  0  0
 20 21  1  0  0  0  0
 21 18  1  0  0  0  0
 22 25  1  0  0  0  0
 22 21  2  0  0  0  0
 23 22  1  0  0  0  0
 24 23  2  0  0  0  0
 24 19  1  0  0  0  0
 26 25  1  0  0  0  0
 26 27  1  0  0  0  0
 27 30  1  0  0  0  0
 28 27  1  0  0  0  0
 29 27  1  0  0  0  0
M  END
>  <MODEL>
4

>  <REMARK>
  Name = ZINC45942685
                            x       y       z     vdW  Elec       q    Type
                         _______ _______ _______ _____ _____    ______ ____

>  <TORSDO>
F 9

>  <minimizedAffinity>
-7.8462955219488748

$$$$
ZINC45942685
 OpenBabel10211215373D

 30 31  0  0  0  0  0  0  0  0999 V2000
   48.7100   51.8700   16.9590 N   0  0  0  0  0  0  0  0  0  0  0  0
   49.4460   51.6610   17.5540 H   0  0  0  0  0  0  0  0  0  0  0  0
   48.2570   53.1360   16.8650 C   0  0  0  0  0  0  0  0  0  0  0  0
   48.8280   54.1120   17.5980 N   0  0  0  0  0  0  0  0  0  0  0  0
   48.5020   55.0230   17.5310 H   0  0  0  0  0  0  0  0  0  0  0  0
   47.3340   53.3990   16.1180 O   0  0  0  0  0  0  0  0  0  0  0  0
   49.8910   53.8110   18.4600 N   0  0  0  0  0  0  0  0  0  0  0  0
   50.1160   52.8860   18.6470 H   0  0  0  0  0  0  0  0  0  0  0  0
   50.6020   54.8050   19.0270 C   0  0  0  0  0  0  0  0  0  0  0  0
   52.2140   54.5250   19.5320 S   0  0  0  0  0  0  0  0  0  0  0  0
   50.0440   56.0210   19.1960 N   0  0  0  0  0  0  0  0  0  0  0  0
   50.3480   56.7720   18.6640 H   0  0  0  0  0  0  0  0  0  0  0  0
   48.9790   56.2060   20.1830 C   0  0  0  0  0  0  0  0  0  0  0  0
   47.8730   57.1140   19.6030 C   0  0  0  0  0  0  0  0  0  0  0  0
   47.4150   57.9710   20.8090 C   0  0  0  0  0  0  0  0  0  0  0  0
   48.7420   58.2450   21.5580 C   0  0  0  0  0  0  0  0  0  0  0  0
   49.5310   56.9270   21.4260 C   0  0  0  0  0  0  0  0  0  0  0  0
   48.0900   50.8110   16.1610 C   0  0  0  0  0  0  0  0  0  0  0  0
   45.3460   48.7330   17.7100 C   0  0  0  0  0  0  0  0  0  0  0  0
   45.9980   49.6050   16.8480 C   0  0  0  0  0  0  0  0  0  0  0  0
   47.3380   49.8720   17.0700 C   0  0  0  0  0  0  0  0  0  0  0  0
   47.9810   49.2630   18.1400 C   0  0  0  0  0  0  0  0  0  0  0  0
   47.3250   48.4370   18.9380 N   0  0  0  0  0  0  0  0  0  0  0  0
   46.0470   48.1630   18.7530 C   0  0  0  0  0  0  0  0  0  0  0  0
   49.2940   49.5170   18.3670 O   0  0  0  0  0  0  0  0  0  0  0  0
   49.9130   48.8130   19.4460 C   0  0  0  0  0  0  0  0  0  0  0  0
   50.8590   49.7550   20.1930 C   0  0  0  0  0  0  0  0  0  0  0  0
   52.1840   49.3990   19.9180 F   0  0  0  0  0  0  0  0  0  0  0  0
   50.6260   49.6550   21.5700 F   0  0  0  0  0  0  0  0  0  0  0  0
   50.6330   51.0710   19.7760 F   0  0  0  0  0  0  0  0  0  0  0  0
  1  2  1  0  0  0  0
  3  1  1  0  0  0  0
  3  4  1  0  0  0  0
  4  7  1  0  0  0  0
  5  4  1  0  0  0  0
  6  3  2  0  0  0  0
  7  8  1  0  0  0  0
  7  9  1  0  0  0  0
  9 11  1  0  0  0  0
  9 10  2  0  0  0  0
 11 13  1  0  0  0  0
 12 11  1  0  0  0  0
 13 17  1  0  0  0  0
 14 13  1  0  0  0  0
 14 15  1  0  0  0  0
 15 16  1  0  0  0  0
 17 16  1  0  0  0  0
 18  1  1  0  0  0  0
 18 21  1  0  0  0  0
 19 24  2  0  0  0  0
 20 21  2  0  0  0  0
 20 19  1  0  0  0  0
 21 22  1  0  0  0  0
 22 25  1  0  0  0  0
 22 23  2  0  0  0  0
 24 23  1  0  0  0  0
 25 26  1  0  0  0  0
 26 27  1  0  0  0  0
 27 29  1  0  0  0  0
 28 27  1  0  0  0  0
 30 27  1  0  0  0  0
M  END
>  <MODEL>
5

>  <REMARK>
  Name = ZINC45942685
                            x       y       z     vdW  Elec       q    Type
                         _______ _______ _______ _____ _____    ______ ____

>  <TORSDO>
F 9

>  <minimizedAffinity>
-7.7573401367309227

$$$$
ZINC45942685
 OpenBabel10211215373D

 30 31  0  0  0  0  0  0  0  0999 V2000
   49.0810   54.3040   18.1980 N   0  0  0  0  0  0  0  0  0  0  0  0
   49.5530   54.0170   18.9950 H   0  0  0  0  0  0  0  0  0  0  0  0
   48.6870   53.3950   17.2850 C   0  0  0  0  0  0  0  0  0  0  0  0
   48.9490   52.0880   17.4780 N   0  0  0  0  0  0  0  0  0  0  0  0
   48.6650   51.4340   16.8200 H   0  0  0  0  0  0  0  0  0  0  0  0
   48.0940   53.7540   16.2850 O   0  0  0  0  0  0  0  0  0  0  0  0
   49.6320   51.6720   18.6290 N   0  0  0  0  0  0  0  0  0  0  0  0
   49.8270   52.3100   19.3330 H   0  0  0  0  0  0  0  0  0  0  0  0
   50.0170   50.3870   18.7570 C   0  0  0  0  0  0  0  0  0  0  0  0
   50.8620   49.8830   20.1580 S   0  0  0  0  0  0  0  0  0  0  0  0
   49.7360   49.4990   17.7830 N   0  0  0  0  0  0  0  0  0  0  0  0
   50.1070   49.6190   16.8950 H   0  0  0  0  0  0  0  0  0  0  0  0
   48.8700   48.3520   18.0650 C   0  0  0  0  0  0  0  0  0  0  0  0
   48.5290   47.6120   16.7540 C   0  0  0  0  0  0  0  0  0  0  0  0
   47.0580   47.1660   16.9420 C   0  0  0  0  0  0  0  0  0  0  0  0
   46.4290   48.3680   17.6870 C   0  0  0  0  0  0  0  0  0  0  0  0
   47.5330   48.8330   18.6580 C   0  0  0  0  0  0  0  0  0  0  0  0
   48.7950   55.7250   17.9880 C   0  0  0  0  0  0  0  0  0  0  0  0
   47.8980   57.9220   20.9230 C   0  0  0  0  0  0  0  0  0  0  0  0
   47.8080   57.2760   19.6970 C   0  0  0  0  0  0  0  0  0  0  0  0
   48.8470   56.4490   19.3100 C   0  0  0  0  0  0  0  0  0  0  0  0
   49.9380   56.2920   20.1550 C   0  0  0  0  0  0  0  0  0  0  0  0
   49.9870   56.9240   21.3160 N   0  0  0  0  0  0  0  0  0  0  0  0
   49.0120   57.7210   21.7120 C   0  0  0  0  0  0  0  0  0  0  0  0
   50.9630   55.4830   19.7860 O   0  0  0  0  0  0  0  0  0  0  0  0
   51.9200   55.1480   20.7940 C   0  0  0  0  0  0  0  0  0  0  0  0
   51.6350   53.7400   21.3200 C   0  0  0  0  0  0  0  0  0  0  0  0
   51.9230   53.6870   22.6880 F   0  0  0  0  0  0  0  0  0  0  0  0
   52.4350   52.8170   20.6390 F   0  0  0  0  0  0  0  0  0  0  0  0
   50.2860   53.4300   21.1160 F   0  0  0  0  0  0  0  0  0  0  0  0
  1  2  1  0  0  0  0
  3  4  1  0  0  0  0
  3  1  1  0  0  0  0
  4  7  1  0  0  0  0
  5  4  1  0  0  0  0
  6  3  2  0  0  0  0
  7  9  1  0  0  0  0
  7  8  1  0  0  0  0
  9 10  2  0  0  0  0
 11 13  1  0  0  0  0
 11  9  1  0  0  0  0
 12 11  1  0  0  0  0
 13 17  1  0  0  0  0
 14 15  1  0  0  0  0
 14 13  1  0  0  0  0
 15 16  1  0  0  0  0
 16 17  1  0  0  0  0
 18  1  1  0  0  0  0
 18 21  1  0  0  0  0
 19 24  2  0  0  0  0
 20 19  1  0  0  0  0
 21 20  2  0  0  0  0
 21 22  1  0  0  0  0
 22 23  2  0  0  0  0
 23 24  1  0  0  0  0
 25 22  1  0  0  0  0
 25 26  1  0  0  0  0
 26 27  1  0  0  0  0
 27 28  1  0  0  0  0
 29 27  1  0  0  0  0
 30 27  1  0  0  0  0
M  END
>  <MODEL>
6

>  <REMARK>
  Name = ZINC45942685
                            x       y       z     vdW  Elec       q    Type
                         _______ _______ _______ _____ _____    ______ ____

>  <TORSDO>
F 9

>  <minimizedAffinity>
-7.6894957629194733

$$$$
ZINC45942685
 OpenBabel10211215373D

 30 31  0  0  0  0  0  0  0  0999 V2000
   50.1730   50.0200   19.8330 N   0  0  0  0  0  0  0  0  0  0  0  0
   49.5060   50.6850   20.0660 H   0  0  0  0  0  0  0  0  0  0  0  0
   51.4710   50.2380   20.1190 C   0  0  0  0  0  0  0  0  0  0  0  0
   51.8440   51.3790   20.7310 N   0  0  0  0  0  0  0  0  0  0  0  0
   52.7790   51.5360   20.9370 H   0  0  0  0  0  0  0  0  0  0  0  0
   52.3070   49.4040   19.8280 O   0  0  0  0  0  0  0  0  0  0  0  0
   50.8820   52.3400   21.0680 N   0  0  0  0  0  0  0  0  0  0  0  0
   50.2810   52.1840   21.8130 H   0  0  0  0  0  0  0  0  0  0  0  0
   50.7910   53.4820   20.3580 C   0  0  0  0  0  0  0  0  0  0  0  0
   52.0250   53.9000   19.2470 S   0  0  0  0  0  0  0  0  0  0  0  0
   49.7290   54.2950   20.5220 N   0  0  0  0  0  0  0  0  0  0  0  0
   48.8810   53.9320   20.8230 H   0  0  0  0  0  0  0  0  0  0  0  0
   49.8530   55.7280   20.2440 C   0  0  0  0  0  0  0  0  0  0  0  0
   50.2690   56.4800   21.5270 C   0  0  0  0  0  0  0  0  0  0  0  0
   49.4890   57.8170   21.4520 C   0  0  0  0  0  0  0  0  0  0  0  0
   48.1270   57.3850   20.8570 C   0  0  0  0  0  0  0  0  0  0  0  0
   48.4910   56.3040   19.8190 C   0  0  0  0  0  0  0  0  0  0  0  0
   49.7680   48.7790   19.1690 C   0  0  0  0  0  0  0  0  0  0  0  0
   46.1160   48.7350   18.2140 C   0  0  0  0  0  0  0  0  0  0  0  0
   47.2850   48.5030   18.9280 C   0  0  0  0  0  0  0  0  0  0  0  0
   48.4730   49.0040   18.4290 C   0  0  0  0  0  0  0  0  0  0  0  0
   48.4590   49.7180   17.2380 C   0  0  0  0  0  0  0  0  0  0  0  0
   47.3250   49.9190   16.5860 N   0  0  0  0  0  0  0  0  0  0  0  0
   46.1760   49.4530   17.0370 C   0  0  0  0  0  0  0  0  0  0  0  0
   49.6180   50.2150   16.7380 O   0  0  0  0  0  0  0  0  0  0  0  0
   49.6080   50.6360   15.3720 C   0  0  0  0  0  0  0  0  0  0  0  0
   50.3300   49.5970   14.5130 C   0  0  0  0  0  0  0  0  0  0  0  0
   51.7130   49.7800   14.6230 F   0  0  0  0  0  0  0  0  0  0  0  0
   49.9460   49.7480   13.1760 F   0  0  0  0  0  0  0  0  0  0  0  0
   49.9950   48.3120   14.9530 F   0  0  0  0  0  0  0  0  0  0  0  0
  1  2  1  0  0  0  0
  1  3  1  0  0  0  0
  3  4  1  0  0  0  0
  4  5  1  0  0  0  0
  4  7  1  0  0  0  0
  6  3  2  0  0  0  0
  7  8  1  0  0  0  0
  9 11  1  0  0  0  0
  9  7  1  0  0  0  0
 10  9  2  0  0  0  0
 11 12  1  0  0  0  0
 13 11  1  0  0  0  0
 13 14  1  0  0  0  0
 15 14  1  0  0  0  0
 16 15  1  0  0  0  0
 17 13  1  0  0  0  0
 17 16  1  0  0  0  0
 18  1  1  0  0  0  0
 19 20  2  0  0  0  0
 21 20  1  0  0  0  0
 21 18  1  0  0  0  0
 22 21  2  0  0  0  0
 23 24  2  0  0  0  0
 23 22  1  0  0  0  0
 24 19  1  0  0  0  0
 25 22  1  0  0  0  0
 26 25  1  0  0  0  0
 27 28  1  0  0  0  0
 27 30  1  0  0  0  0
 27 26  1  0  0  0  0
 29 27  1  0  0  0  0
M  END
>  <MODEL>
7

>  <REMARK>
  Name = ZINC45942685
                            x       y       z     vdW  Elec       q    Type
                         _______ _______ _______ _____ _____    ______ ____

>  <TORSDO>
F 9

>  <minimizedAffinity>
-7.6582885316355425

$$$$
ZINC45942685
 OpenBabel10211215373D

 30 31  0  0  0  0  0  0  0  0999 V2000
   51.2410   52.8050   18.2310 N   0  0  0  0  0  0  0  0  0  0  0  0
   50.3430   52.8770   17.8710 H   0  0  0  0  0  0  0  0  0  0  0  0
   51.9940   51.7230   17.9510 C   0  0  0  0  0  0  0  0  0  0  0  0
   51.5000   50.7420   17.1700 N   0  0  0  0  0  0  0  0  0  0  0  0
   52.0420   49.9630   16.9690 H   0  0  0  0  0  0  0  0  0  0  0  0
   53.1200   51.6320   18.4020 O   0  0  0  0  0  0  0  0  0  0  0  0
   50.2030   50.8460   16.6500 N   0  0  0  0  0  0  0  0  0  0  0  0
   49.6740   51.6400   16.8230 H   0  0  0  0  0  0  0  0  0  0  0  0
   49.6920   49.8430   15.9090 C   0  0  0  0  0  0  0  0  0  0  0  0
   50.3310   49.5130   14.3560 S   0  0  0  0  0  0  0  0  0  0  0  0
   48.6760   49.0990   16.3920 N   0  0  0  0  0  0  0  0  0  0  0  0
   48.8540   48.2270   16.7780 H   0  0  0  0  0  0  0  0  0  0  0  0
   47.3040   49.6080   16.3340 C   0  0  0  0  0  0  0  0  0  0  0  0
   46.6420   49.5030   17.7240 C   0  0  0  0  0  0  0  0  0  0  0  0
   45.1730   49.1190   17.4160 C   0  0  0  0  0  0  0  0  0  0  0  0
   45.3170   48.1440   16.2230 C   0  0  0  0  0  0  0  0  0  0  0  0
   46.4610   48.7430   15.3790 C   0  0  0  0  0  0  0  0  0  0  0  0
   51.7780   53.8710   19.0790 C   0  0  0  0  0  0  0  0  0  0  0  0
   48.3360   55.3050   19.6650 C   0  0  0  0  0  0  0  0  0  0  0  0
   49.3460   54.4850   19.1800 C   0  0  0  0  0  0  0  0  0  0  0  0
   50.6470   54.7340   19.5780 C   0  0  0  0  0  0  0  0  0  0  0  0
   50.8990   55.7900   20.4450 C   0  0  0  0  0  0  0  0  0  0  0  0
   49.9090   56.5490   20.8870 N   0  0  0  0  0  0  0  0  0  0  0  0
   48.6580   56.3360   20.5250 C   0  0  0  0  0  0  0  0  0  0  0  0
   52.1700   56.0450   20.8430 O   0  0  0  0  0  0  0  0  0  0  0  0
   52.3350   56.8620   22.0040 C   0  0  0  0  0  0  0  0  0  0  0  0
   53.3520   57.9660   21.7090 C   0  0  0  0  0  0  0  0  0  0  0  0
   54.4700   57.8030   22.5350 F   0  0  0  0  0  0  0  0  0  0  0  0
   52.7700   59.2150   21.9560 F   0  0  0  0  0  0  0  0  0  0  0  0
   53.7480   57.8920   20.3700 F   0  0  0  0  0  0  0  0  0  0  0  0
  1 18  1  0  0  0  0
  2  1  1  0  0  0  0
  3  1  1  0  0  0  0
  3  6  2  0  0  0  0
  4  3  1  0  0  0  0
  5  4  1  0  0  0  0
  7  8  1  0  0  0  0
  7  4  1  0  0  0  0
  9 11  1  0  0  0  0
  9  7  1  0  0  0  0
 10  9  2  0  0  0  0
 11 12  1  0  0  0  0
 13 11  1  0  0  0  0
 13 14  1  0  0  0  0
 15 14  1  0  0  0  0
 16 15  1  0  0  0  0
 17 16  1  0  0  0  0
 17 13  1  0  0  0  0
 18 21  1  0  0  0  0
 19 24  2  0  0  0  0
 20 21  2  0  0  0  0
 20 19  1  0  0  0  0
 21 22  1  0  0  0  0
 22 25  1  0  0  0  0
 22 23  2  0  0  0  0
 24 23  1  0  0  0  0
 25 26  1  0  0  0  0
 27 29  1  0  0  0  0
 27 26  1  0  0  0  0
 27 28  1  0  0  0  0
 30 27  1  0  0  0  0
M  END
>  <MODEL>
8

>  <REMARK>
  Name = ZINC45942685
                            x       y       z     vdW  Elec       q    Type
                         _______ _______ _______ _____ _____    ______ ____

>  <TORSDO>
F 9

>  <minimizedAffinity>
-7.4985262919137785

$$$$
ZINC45942685
 OpenBabel10211215373D

 30 31  0  0  0  0  0  0  0  0999 V2000
   51.0290   53.4750   19.0860 N   0  0  0  0  0  0  0  0  0  0  0  0
   50.4980   53.9650   19.7340 H   0  0  0  0  0  0  0  0  0  0  0  0
   52.3330   53.7710   18.9220 C   0  0  0  0  0  0  0  0  0  0  0  0
   52.9010   54.7470   19.6560 N   0  0  0  0  0  0  0  0  0  0  0  0
   53.8400   54.9600   19.5380 H   0  0  0  0  0  0  0  0  0  0  0  0
   52.9990   53.1560   18.1100 O   0  0  0  0  0  0  0  0  0  0  0  0
   52.1350   55.4560   20.5920 N   0  0  0  0  0  0  0  0  0  0  0  0
   51.5210   54.9820   21.1740 H   0  0  0  0  0  0  0  0  0  0  0  0
   52.2510   56.7950   20.6820 C   0  0  0  0  0  0  0  0  0  0  0  0
   53.8010   57.5180   20.7530 S   0  0  0  0  0  0  0  0  0  0  0  0
   51.1450   57.5670   20.7150 N   0  0  0  0  0  0  0  0  0  0  0  0
   51.2040   58.5090   20.4930 H   0  0  0  0  0  0  0  0  0  0  0  0
   49.8560   56.9820   21.0880 C   0  0  0  0  0  0  0  0  0  0  0  0
   49.0960   56.5270   19.8240 C   0  0  0  0  0  0  0  0  0  0  0  0
   47.6140   56.8510   20.1340 C   0  0  0  0  0  0  0  0  0  0  0  0
   47.7110   58.1920   20.9020 C   0  0  0  0  0  0  0  0  0  0  0  0
   48.9740   58.0410   21.7730 C   0  0  0  0  0  0  0  0  0  0  0  0
   50.4120   52.4140   18.2880 C   0  0  0  0  0  0  0  0  0  0  0  0
   50.8030   49.9100   21.0860 C   0  0  0  0  0  0  0  0  0  0  0  0
   50.8300   51.1150   20.3950 C   0  0  0  0  0  0  0  0  0  0  0  0
   50.4030   51.1300   19.0790 C   0  0  0  0  0  0  0  0  0  0  0  0
   49.9660   49.9480   18.4960 C   0  0  0  0  0  0  0  0  0  0  0  0
   49.9550   48.8200   19.1870 N   0  0  0  0  0  0  0  0  0  0  0  0
   50.3560   48.7740   20.4440 C   0  0  0  0  0  0  0  0  0  0  0  0
   49.5450   49.9500   17.2060 O   0  0  0  0  0  0  0  0  0  0  0  0
   48.3880   49.1680   16.9000 C   0  0  0  0  0  0  0  0  0  0  0  0
   48.7310   48.1570   15.8050 C   0  0  0  0  0  0  0  0  0  0  0  0
   49.7990   48.6420   15.0410 F   0  0  0  0  0  0  0  0  0  0  0  0
   47.6170   47.9670   14.9790 F   0  0  0  0  0  0  0  0  0  0  0  0
   49.0910   46.9390   16.3900 F   0  0  0  0  0  0  0  0  0  0  0  0
  1  2  1  0  0  0  0
  3  1  1  0  0  0  0
  3  4  1  0  0  0  0
  4  7  1  0  0  0  0
  5  4  1  0  0  0  0
  6  3  2  0  0  0  0
  7  9  1  0  0  0  0
  7  8  1  0  0  0  0
  9 11  1  0  0  0  0
  9 10  2  0  0  0  0
 11 13  1  0  0  0  0
 12 11  1  0  0  0  0
 13 17  1  0  0  0  0
 14 15  1  0  0  0  0
 14 13  1  0  0  0  0
 15 16  1  0  0  0  0
 16 17  1  0  0  0  0
 18 21  1  0  0  0  0
 18  1  1  0  0  0  0
 20 19  2  0  0  0  0
 21 20  1  0  0  0  0
 22 21  2  0  0  0  0
 22 23  1  0  0  0  0
 23 24  2  0  0  0  0
 24 19  1  0  0  0  0
 25 22  1  0  0  0  0
 26 25  1  0  0  0  0
 27 30  1  0  0  0  0
 27 26  1  0  0  0  0
 28 27  1  0  0  0  0
 29 27  1  0  0  0  0
M  END
>  <MODEL>
9

>  <REMARK>
  Name = ZINC45942685
                            x       y       z     vdW  Elec       q    Type
                         _______ _______ _______ _____ _____    ______ ____

>  <TORSDO>
F 9

>  <minimizedAffinity>
-7.4613963818931719

$$$$
ZINC03429672
 OpenBabel10211215393D

 29 29  0  0  1  0  0  0  0  0999 V2000
   50.6330   52.2290   20.1470 N   0  0  0  0  0  0  0  0  0  0  0  0
   49.7400   52.0190   20.4610 H   0  0  0  0  0  0  0  0  0  0  0  0
   51.4270   53.5580   20.7370 S   0  0  0  0  0  0  0  0  0  0  0  0
   52.4550   53.8630   19.8040 O   0  0  0  0  0  0  0  0  0  0  0  0
   51.6950   53.2950   22.1070 O   0  0  0  0  0  0  0  0  0  0  0  0
   50.2920   54.9040   20.6940 C   0  0  0  0  0  0  0  0  0  0  0  0
   49.1250   54.7990   19.9600 C   0  0  0  0  0  0  0  0  0  0  0  0
   48.2330   55.8540   19.9250 C   0  0  0  0  0  0  0  0  0  0  0  0
   48.5090   57.0190   20.6290 C   0  0  0  0  0  0  0  0  0  0  0  0
   49.6810   57.1200   21.3660 C   0  0  0  0  0  0  0  0  0  0  0  0
   50.5670   56.0600   21.4000 C   0  0  0  0  0  0  0  0  0  0  0  0
   47.6070   58.0890   20.5950 N   0  0  0  0  0  0  0  0  0  0  0  0
   47.0400   58.2690   21.3610 H   0  0  0  0  0  0  0  0  0  0  0  0
   47.5270   58.8670   19.4980 C   0  0  0  0  0  0  0  0  0  0  0  0
   46.6430   60.0880   19.5040 C   0  0  0  0  0  0  0  0  0  0  0  0
   48.1650   58.5850   18.5060 O   0  0  0  0  0  0  0  0  0  0  0  0
   51.2820   51.3700   19.1520 C   0  0  1  0  0  0  0  0  0  0  0  0
   51.5430   49.9910   19.7610 C   0  0  0  0  0  0  0  0  0  0  0  0
   50.5880   50.2270   17.0710 N   0  0  0  0  0  0  0  0  0  0  0  0
   51.3140   49.5990   17.2110 H   0  0  0  0  0  0  0  0  0  0  0  0
   50.3840   51.2280   17.9510 C   0  0  0  0  0  0  0  0  0  0  0  0
   49.4760   52.0130   17.7750 O   0  0  0  0  0  0  0  0  0  0  0  0
   50.5600   49.7760   14.6670 C   0  0  0  0  0  0  0  0  0  0  0  0
   49.7150   50.0890   15.9030 C   0  0  1  0  0  0  0  0  0  0  0  0
   48.7210   48.9500   16.1420 C   0  0  0  0  0  0  0  0  0  0  0  0
   47.2930   49.4900   16.0420 C   0  0  0  0  0  0  0  0  0  0  0  0
   46.7170   49.6740   17.4470 C   0  0  0  0  0  0  0  0  0  0  0  0
   47.5220   48.8330   18.4410 C   0  0  0  0  0  0  0  0  0  0  0  0
   45.2550   49.2230   17.4630 C   0  0  0  0  0  0  0  0  0  0  0  0
  1  2  1  0  0  0  0
  1  3  1  0  0  0  0
  3  5  2  0  0  0  0
  4  3  2  0  0  0  0
  6  3  1  0  0  0  0
  6 11  2  0  0  0  0
  7  6  1  0  0  0  0
  8  7  2  0  0  0  0
  8  9  1  0  0  0  0
  9 10  2  0  0  0  0
 10 11  1  0  0  0  0
 12  9  1  0  0  0  0
 12 13  1  0  0  0  0
 14 15  1  0  0  0  0
 14 12  1  0  0  0  0
 16 14  2  0  0  0  0
 17 21  1  1  0  0  0
 17 18  1  0  0  0  0
 17  1  1  0  0  0  0
 19 20  1  0  0  0  0
 19 21  1  0  0  0  0
 22 21  2  0  0  0  0
 24 23  1  1  0  0  0
 24 25  1  0  0  0  0
 24 19  1  0  0  0  0
 26 25  1  0  0  0  0
 26 27  1  0  0  0  0
 27 29  1  0  0  0  0
 27 28  1  0  0  0  0
M  END
>  <MODEL>
1

>  <REMARK>
  Name = ZINC03429672
                            x       y       z     vdW  Elec       q    Type
                         _______ _______ _______ _____ _____    ______ ____

>  <TORSDO>
F 9

>  <minimizedAffinity>
-8.2585755647630243

$$$$
ZINC03429672
 OpenBabel10211215393D

 29 29  0  0  1  0  0  0  0  0999 V2000
   50.9310   52.4100   20.5510 N   0  0  0  0  0  0  0  0  0  0  0  0
   50.1130   52.6870   20.9920 H   0  0  0  0  0  0  0  0  0  0  0  0
   51.1730   50.8140   20.1790 S   0  0  0  0  0  0  0  0  0  0  0  0
   50.9840   50.0840   21.3840 O   0  0  0  0  0  0  0  0  0  0  0  0
   52.3800   50.7500   19.4310 O   0  0  0  0  0  0  0  0  0  0  0  0
   49.8780   50.3310   19.0880 C   0  0  0  0  0  0  0  0  0  0  0  0
   49.4840   51.1760   18.0670 C   0  0  0  0  0  0  0  0  0  0  0  0
   48.4680   50.8000   17.2110 C   0  0  0  0  0  0  0  0  0  0  0  0
   47.8430   49.5700   17.3740 C   0  0  0  0  0  0  0  0  0  0  0  0
   48.2410   48.7240   18.4010 C   0  0  0  0  0  0  0  0  0  0  0  0
   49.2610   49.1040   19.2510 C   0  0  0  0  0  0  0  0  0  0  0  0
   46.8130   49.1870   16.5080 N   0  0  0  0  0  0  0  0  0  0  0  0
   45.8900   49.3800   16.7360 H   0  0  0  0  0  0  0  0  0  0  0  0
   47.1030   48.5500   15.3570 C   0  0  0  0  0  0  0  0  0  0  0  0
   46.0070   48.2420   14.3690 C   0  0  0  0  0  0  0  0  0  0  0  0
   48.2460   48.2230   15.1160 O   0  0  0  0  0  0  0  0  0  0  0  0
   51.9530   53.4040   20.2110 C   0  0  1  0  0  0  0  0  0  0  0  0
   51.6650   53.9780   18.8220 C   0  0  0  0  0  0  0  0  0  0  0  0
   52.0750   55.7960   20.8330 N   0  0  0  0  0  0  0  0  0  0  0  0
   52.1940   56.0010   19.8930 H   0  0  0  0  0  0  0  0  0  0  0  0
   51.9300   54.5160   21.2290 C   0  0  0  0  0  0  0  0  0  0  0  0
   51.7810   54.2580   22.4050 O   0  0  0  0  0  0  0  0  0  0  0  0
   53.4090   57.5820   21.8370 C   0  0  0  0  0  0  0  0  0  0  0  0
   52.0520   56.8750   21.8220 C   0  0  1  0  0  0  0  0  0  0  0  0
   50.9590   57.8810   21.4560 C   0  0  0  0  0  0  0  0  0  0  0  0
   49.5860   57.2590   21.7190 C   0  0  0  0  0  0  0  0  0  0  0  0
   48.7920   57.2030   20.4120 C   0  0  0  0  0  0  0  0  0  0  0  0
   47.4380   57.8880   20.6100 C   0  0  0  0  0  0  0  0  0  0  0  0
   48.5720   55.7440   20.0100 C   0  0  0  0  0  0  0  0  0  0  0  0
  1  2  1  0  0  0  0
  3  1  1  0  0  0  0
  3  4  2  0  0  0  0
  5  3  2  0  0  0  0
  6 11  1  0  0  0  0
  6  3  1  0  0  0  0
  7  6  2  0  0  0  0
  8  9  2  0  0  0  0
  8  7  1  0  0  0  0
  9 10  1  0  0  0  0
 10 11  2  0  0  0  0
 12 13  1  0  0  0  0
 12  9  1  0  0  0  0
 14 12  1  0  0  0  0
 15 14  1  0  0  0  0
 16 14  2  0  0  0  0
 17 18  1  6  0  0  0
 17  1  1  0  0  0  0
 17 21  1  0  0  0  0
 19 21  1  0  0  0  0
 20 19  1  0  0  0  0
 21 22  2  0  0  0  0
 24 19  1  6  0  0  0
 24 23  1  0  0  0  0
 25 26  1  0  0  0  0
 25 24  1  0  0  0  0
 27 28  1  0  0  0  0
 27 26  1  0  0  0  0
 29 27  1  0  0  0  0
M  END
>  <MODEL>
2

>  <REMARK>
  Name = ZINC03429672
                            x       y       z     vdW  Elec       q    Type
                         _______ _______ _______ _____ _____    ______ ____

>  <TORSDO>
F 9

>  <minimizedAffinity>
-8.236650318943159

$$$$
ZINC03429672
 OpenBabel10211215393D

 29 29  0  0  1  0  0  0  0  0999 V2000
   50.5780   49.5890   18.5720 N   0  0  0  0  0  0  0  0  0  0  0  0
   51.0120   49.2610   17.7690 H   0  0  0  0  0  0  0  0  0  0  0  0
   51.4230   49.6730   19.9940 S   0  0  0  0  0  0  0  0  0  0  0  0
   52.7440   49.2350   19.7080 O   0  0  0  0  0  0  0  0  0  0  0  0
   50.6130   49.0550   20.9840 O   0  0  0  0  0  0  0  0  0  0  0  0
   51.5410   51.3760   20.4300 C   0  0  0  0  0  0  0  0  0  0  0  0
   51.1430   51.7960   21.6860 C   0  0  0  0  0  0  0  0  0  0  0  0
   51.2340   53.1300   22.0300 C   0  0  0  0  0  0  0  0  0  0  0  0
   51.7280   54.0510   21.1140 C   0  0  0  0  0  0  0  0  0  0  0  0
   52.1270   53.6250   19.8540 C   0  0  0  0  0  0  0  0  0  0  0  0
   52.0370   52.2880   19.5180 C   0  0  0  0  0  0  0  0  0  0  0  0
   51.8210   55.4030   21.4600 N   0  0  0  0  0  0  0  0  0  0  0  0
   52.6420   55.7500   21.8420 H   0  0  0  0  0  0  0  0  0  0  0  0
   50.7700   56.2230   21.2630 C   0  0  0  0  0  0  0  0  0  0  0  0
   50.9080   57.7010   21.5250 C   0  0  0  0  0  0  0  0  0  0  0  0
   49.7130   55.7720   20.8760 O   0  0  0  0  0  0  0  0  0  0  0  0
   49.1750   50.0120   18.5270 C   0  0  1  0  0  0  0  0  0  0  0  0
   49.0030   51.0940   17.4580 C   0  0  0  0  0  0  0  0  0  0  0  0
   46.9660   48.9190   18.3160 N   0  0  0  0  0  0  0  0  0  0  0  0
   46.5630   49.7460   18.6250 H   0  0  0  0  0  0  0  0  0  0  0  0
   48.3050   48.8290   18.1890 C   0  0  0  0  0  0  0  0  0  0  0  0
   48.8100   47.7960   17.8030 O   0  0  0  0  0  0  0  0  0  0  0  0
   45.3330   47.3440   19.2290 C   0  0  0  0  0  0  0  0  0  0  0  0
   46.1200   47.7690   17.9880 C   0  0  1  0  0  0  0  0  0  0  0  0
   45.1450   48.1550   16.8730 C   0  0  0  0  0  0  0  0  0  0  0  0
   45.4630   47.3450   15.6150 C   0  0  0  0  0  0  0  0  0  0  0  0
   45.8250   48.2970   14.4740 C   0  0  0  0  0  0  0  0  0  0  0  0
   45.6210   47.5860   13.1340 C   0  0  0  0  0  0  0  0  0  0  0  0
   47.2890   48.7220   14.6080 C   0  0  0  0  0  0  0  0  0  0  0  0
  1  3  1  0  0  0  0
  2  1  1  0  0  0  0
  3  6  1  0  0  0  0
  3  5  2  0  0  0  0
  4  3  2  0  0  0  0
  6  7  2  0  0  0  0
  7  8  1  0  0  0  0
  9 12  1  0  0  0  0
  9  8  2  0  0  0  0
 10  9  1  0  0  0  0
 11 10  2  0  0  0  0
 11  6  1  0  0  0  0
 12 13  1  0  0  0  0
 14 12  1  0  0  0  0
 14 15  1  0  0  0  0
 16 14  2  0  0  0  0
 17 18  1  6  0  0  0
 17  1  1  0  0  0  0
 19 20  1  0  0  0  0
 21 19  1  0  0  0  0
 21 17  1  0  0  0  0
 22 21  2  0  0  0  0
 24 25  1  1  0  0  0
 24 19  1  0  0  0  0
 24 23  1  0  0  0  0
 26 25  1  0  0  0  0
 27 29  1  0  0  0  0
 27 26  1  0  0  0  0
 28 27  1  0  0  0  0
M  END
>  <MODEL>
3

>  <REMARK>
  Name = ZINC03429672
                            x       y       z     vdW  Elec       q    Type
                         _______ _______ _______ _____ _____    ______ ____

>  <TORSDO>
F 9

>  <minimizedAffinity>
-8.0828528803187254

$$$$
ZINC03429672
 OpenBabel10211215393D

 29 29  0  0  1  0  0  0  0  0999 V2000
   51.8730   52.3650   19.5260 N   0  0  0  0  0  0  0  0  0  0  0  0
   52.6160   52.9760   19.4010 H   0  0  0  0  0  0  0  0  0  0  0  0
   51.9490   50.8310   18.9050 S   0  0  0  0  0  0  0  0  0  0  0  0
   52.3620   49.9840   19.9680 O   0  0  0  0  0  0  0  0  0  0  0  0
   52.6650   50.9240   17.6820 O   0  0  0  0  0  0  0  0  0  0  0  0
   50.3040   50.3550   18.4920 C   0  0  0  0  0  0  0  0  0  0  0  0
   49.6240   51.0220   17.4890 C   0  0  0  0  0  0  0  0  0  0  0  0
   48.3340   50.6510   17.1630 C   0  0  0  0  0  0  0  0  0  0  0  0
   47.7210   49.6060   17.8420 C   0  0  0  0  0  0  0  0  0  0  0  0
   48.4070   48.9380   18.8480 C   0  0  0  0  0  0  0  0  0  0  0  0
   49.6980   49.3120   19.1660 C   0  0  0  0  0  0  0  0  0  0  0  0
   46.4140   49.2280   17.5140 N   0  0  0  0  0  0  0  0  0  0  0  0
   45.6650   49.5880   18.0150 H   0  0  0  0  0  0  0  0  0  0  0  0
   46.1960   48.3650   16.5030 C   0  0  0  0  0  0  0  0  0  0  0  0
   44.7860   48.0500   16.0720 C   0  0  0  0  0  0  0  0  0  0  0  0
   47.1330   47.8420   15.9390 O   0  0  0  0  0  0  0  0  0  0  0  0
   50.6840   52.7990   20.2640 C   0  0  1  0  0  0  0  0  0  0  0  0
   50.9690   52.7460   21.7660 C   0  0  0  0  0  0  0  0  0  0  0  0
   49.7010   55.0190   20.7410 N   0  0  0  0  0  0  0  0  0  0  0  0
   49.4690   54.6910   21.6240 H   0  0  0  0  0  0  0  0  0  0  0  0
   50.3350   54.2110   19.8680 C   0  0  0  0  0  0  0  0  0  0  0  0
   50.6250   54.6210   18.7640 O   0  0  0  0  0  0  0  0  0  0  0  0
   47.8670   56.4780   20.0410 C   0  0  0  0  0  0  0  0  0  0  0  0
   49.3620   56.3910   20.3560 C   0  0  1  0  0  0  0  0  0  0  0  0
   49.6950   57.3410   21.5090 C   0  0  0  0  0  0  0  0  0  0  0  0
   51.1300   57.0910   21.9760 C   0  0  0  0  0  0  0  0  0  0  0  0
   52.1060   57.7700   21.0130 C   0  0  0  0  0  0  0  0  0  0  0  0
   53.0640   56.7250   20.4370 C   0  0  0  0  0  0  0  0  0  0  0  0
   52.9060   58.8360   21.7640 C   0  0  0  0  0  0  0  0  0  0  0  0
  2  1  1  0  0  0  0
  3  1  1  0  0  0  0
  3  4  2  0  0  0  0
  5  3  2  0  0  0  0
  6  3  1  0  0  0  0
  6 11  2  0  0  0  0
  7  6  1  0  0  0  0
  8  7  2  0  0  0  0
  8  9  1  0  0  0  0
  9 10  2  0  0  0  0
 10 11  1  0  0  0  0
 12  9  1  0  0  0  0
 12 13  1  0  0  0  0
 14 12  1  0  0  0  0
 15 14  1  0  0  0  0
 16 14  2  0  0  0  0
 17  1  1  1  0  0  0
 17 18  1  0  0  0  0
 19 20  1  0  0  0  0
 21 17  1  0  0  0  0
 21 19  1  0  0  0  0
 22 21  2  0  0  0  0
 24 23  1  1  0  0  0
 24 19  1  0  0  0  0
 24 25  1  0  0  0  0
 25 26  1  0  0  0  0
 27 29  1  0  0  0  0
 27 26  1  0  0  0  0
 28 27  1  0  0  0  0
M  END
>  <MODEL>
4

>  <REMARK>
  Name = ZINC03429672
                            x       y       z     vdW  Elec       q    Type
                         _______ _______ _______ _____ _____    ______ ____

>  <TORSDO>
F 9

>  <minimizedAffinity>
-8.0214721698729186

$$$$
ZINC03429672
 OpenBabel10211215393D

 29 29  0  0  1  0  0  0  0  0999 V2000
   52.3150   51.9620   19.8400 N   0  0  0  0  0  0  0  0  0  0  0  0
   53.1600   52.3160   20.1570 H   0  0  0  0  0  0  0  0  0  0  0  0
   52.2930   50.6360   18.8470 S   0  0  0  0  0  0  0  0  0  0  0  0
   52.8150   49.5540   19.6050 O   0  0  0  0  0  0  0  0  0  0  0  0
   52.8630   51.0450   17.6120 O   0  0  0  0  0  0  0  0  0  0  0  0
   50.6040   50.2560   18.5230 C   0  0  0  0  0  0  0  0  0  0  0  0
   49.9610   49.2840   19.2660 C   0  0  0  0  0  0  0  0  0  0  0  0
   48.6370   48.9830   19.0140 C   0  0  0  0  0  0  0  0  0  0  0  0
   47.9500   49.6600   18.0130 C   0  0  0  0  0  0  0  0  0  0  0  0
   48.6000   50.6360   17.2690 C   0  0  0  0  0  0  0  0  0  0  0  0
   49.9230   50.9350   17.5290 C   0  0  0  0  0  0  0  0  0  0  0  0
   46.6090   49.3570   17.7550 N   0  0  0  0  0  0  0  0  0  0  0  0
   45.9060   49.8430   18.2130 H   0  0  0  0  0  0  0  0  0  0  0  0
   46.2950   48.3910   16.8700 C   0  0  0  0  0  0  0  0  0  0  0  0
   44.8540   48.1450   16.5040 C   0  0  0  0  0  0  0  0  0  0  0  0
   47.1710   47.7180   16.3700 O   0  0  0  0  0  0  0  0  0  0  0  0
   51.0560   52.5990   20.2390 C   0  0  1  0  0  0  0  0  0  0  0  0
   51.1660   53.0810   21.6870 C   0  0  0  0  0  0  0  0  0  0  0  0
   49.5220   54.2370   19.1990 N   0  0  0  0  0  0  0  0  0  0  0  0
   48.7950   53.8130   19.6800 H   0  0  0  0  0  0  0  0  0  0  0  0
   50.7800   53.7740   19.3370 C   0  0  0  0  0  0  0  0  0  0  0  0
   51.6910   54.3040   18.7360 O   0  0  0  0  0  0  0  0  0  0  0  0
   48.3960   54.9260   17.1400 C   0  0  0  0  0  0  0  0  0  0  0  0
   49.2540   55.3800   18.3230 C   0  0  1  0  0  0  0  0  0  0  0  0
   48.5080   56.4610   19.1080 C   0  0  0  0  0  0  0  0  0  0  0  0
   48.7560   56.2660   20.6050 C   0  0  0  0  0  0  0  0  0  0  0  0
   49.6690   57.3790   21.1200 C   0  0  0  0  0  0  0  0  0  0  0  0
   50.7770   56.7710   21.9830 C   0  0  0  0  0  0  0  0  0  0  0  0
   48.8510   58.3630   21.9590 C   0  0  0  0  0  0  0  0  0  0  0  0
  1  2  1  0  0  0  0
  1 17  1  0  0  0  0
  3  4  2  0  0  0  0
  3  1  1  0  0  0  0
  5  3  2  0  0  0  0
  6  3  1  0  0  0  0
  6  7  2  0  0  0  0
  8  7  1  0  0  0  0
  9  8  2  0  0  0  0
 10 11  2  0  0  0  0
 10  9  1  0  0  0  0
 11  6  1  0  0  0  0
 12  9  1  0  0  0  0
 12 13  1  0  0  0  0
 14 12  1  0  0  0  0
 15 14  1  0  0  0  0
 16 14  2  0  0  0  0
 17 21  1  1  0  0  0
 17 18  1  0  0  0  0
 19 21  1  0  0  0  0
 19 20  1  0  0  0  0
 22 21  2  0  0  0  0
 24 23  1  1  0  0  0
 24 25  1  0  0  0  0
 24 19  1  0  0  0  0
 25 26  1  0  0  0  0
 26 27  1  0  0  0  0
 27 29  1  0  0  0  0
 27 28  1  0  0  0  0
M  END
>  <MODEL>
5

>  <REMARK>
  Name = ZINC03429672
                            x       y       z     vdW  Elec       q    Type
                         _______ _______ _______ _____ _____    ______ ____

>  <TORSDO>
F 9

>  <minimizedAffinity>
-7.969150932635098

$$$$
ZINC03429672
 OpenBabel10211215393D

 29 29  0  0  1  0  0  0  0  0999 V2000
   51.2470   50.7800   19.1330 N   0  0  0  0  0  0  0  0  0  0  0  0
   51.7980   50.4390   18.4120 H   0  0  0  0  0  0  0  0  0  0  0  0
   51.9280   51.1300   20.6020 S   0  0  0  0  0  0  0  0  0  0  0  0
   53.2950   50.7500   20.5160 O   0  0  0  0  0  0  0  0  0  0  0  0
   51.0520   50.6070   21.5910 O   0  0  0  0  0  0  0  0  0  0  0  0
   51.9040   52.8820   20.7830 C   0  0  0  0  0  0  0  0  0  0  0  0
   51.5600   53.4460   21.9980 C   0  0  0  0  0  0  0  0  0  0  0  0
   51.5400   54.8190   22.1420 C   0  0  0  0  0  0  0  0  0  0  0  0
   51.8670   55.6350   21.0660 C   0  0  0  0  0  0  0  0  0  0  0  0
   52.2120   55.0650   19.8480 C   0  0  0  0  0  0  0  0  0  0  0  0
   52.2350   53.6910   19.7110 C   0  0  0  0  0  0  0  0  0  0  0  0
   51.8470   57.0270   21.2100 N   0  0  0  0  0  0  0  0  0  0  0  0
   51.0400   57.5230   21.0030 H   0  0  0  0  0  0  0  0  0  0  0  0
   52.9470   57.6760   21.6360 C   0  0  0  0  0  0  0  0  0  0  0  0
   52.8910   59.1580   21.9040 C   0  0  0  0  0  0  0  0  0  0  0  0
   53.9830   57.0680   21.8040 O   0  0  0  0  0  0  0  0  0  0  0  0
   49.8110   50.9870   18.9240 C   0  0  1  0  0  0  0  0  0  0  0  0
   49.6000   51.9690   17.7700 C   0  0  0  0  0  0  0  0  0  0  0  0
   48.0180   49.6470   17.8710 N   0  0  0  0  0  0  0  0  0  0  0  0
   47.6170   50.4780   17.5710 H   0  0  0  0  0  0  0  0  0  0  0  0
   49.1580   49.6700   18.5890 C   0  0  0  0  0  0  0  0  0  0  0  0
   49.6600   48.6320   18.9640 O   0  0  0  0  0  0  0  0  0  0  0  0
   45.9280   48.3850   18.0170 C   0  0  0  0  0  0  0  0  0  0  0  0
   47.3830   48.3680   17.5450 C   0  0  1  0  0  0  0  0  0  0  0  0
   47.4260   48.1480   16.0310 C   0  0  0  0  0  0  0  0  0  0  0  0
   48.8810   48.1240   15.5610 C   0  0  0  0  0  0  0  0  0  0  0  0
   49.2300   49.4640   14.9120 C   0  0  0  0  0  0  0  0  0  0  0  0
   48.1840   49.8020   13.8460 C   0  0  0  0  0  0  0  0  0  0  0  0
   50.6110   49.3720   14.2600 C   0  0  0  0  0  0  0  0  0  0  0  0
  1  3  1  0  0  0  0
  2  1  1  0  0  0  0
  3  6  1  0  0  0  0
  3  5  2  0  0  0  0
  4  3  2  0  0  0  0
  6  7  2  0  0  0  0
  7  8  1  0  0  0  0
  9 12  1  0  0  0  0
  9  8  2  0  0  0  0
 10  9  1  0  0  0  0
 11 10  2  0  0  0  0
 11  6  1  0  0  0  0
 12 14  1  0  0  0  0
 13 12  1  0  0  0  0
 14 16  2  0  0  0  0
 14 15  1  0  0  0  0
 17 18  1  6  0  0  0
 17  1  1  0  0  0  0
 19 21  1  0  0  0  0
 20 19  1  0  0  0  0
 21 17  1  0  0  0  0
 21 22  2  0  0  0  0
 24 25  1  6  0  0  0
 24 19  1  0  0  0  0
 24 23  1  0  0  0  0
 26 25  1  0  0  0  0
 27 26  1  0  0  0  0
 28 27  1  0  0  0  0
 29 27  1  0  0  0  0
M  END
>  <MODEL>
6

>  <REMARK>
  Name = ZINC03429672
                            x       y       z     vdW  Elec       q    Type
                         _______ _______ _______ _____ _____    ______ ____

>  <TORSDO>
F 9

>  <minimizedAffinity>
-7.9563288662998684

$$$$
ZINC03429672
 OpenBabel10211215393D

 29 29  0  0  1  0  0  0  0  0999 V2000
   50.4340   51.0270   19.6750 N   0  0  0  0  0  0  0  0  0  0  0  0
   49.6690   51.5420   19.9760 H   0  0  0  0  0  0  0  0  0  0  0  0
   51.9600   51.4450   20.1650 S   0  0  0  0  0  0  0  0  0  0  0  0
   52.8120   51.2550   19.0440 O   0  0  0  0  0  0  0  0  0  0  0  0
   52.1790   50.7930   21.4080 O   0  0  0  0  0  0  0  0  0  0  0  0
   51.9440   53.1740   20.4990 C   0  0  0  0  0  0  0  0  0  0  0  0
   51.6420   53.6290   21.7690 C   0  0  0  0  0  0  0  0  0  0  0  0
   51.6290   54.9850   22.0330 C   0  0  0  0  0  0  0  0  0  0  0  0
   51.9220   55.8910   21.0220 C   0  0  0  0  0  0  0  0  0  0  0  0
   52.2260   55.4300   19.7480 C   0  0  0  0  0  0  0  0  0  0  0  0
   52.2410   54.0730   19.4920 C   0  0  0  0  0  0  0  0  0  0  0  0
   51.9090   57.2650   21.2870 N   0  0  0  0  0  0  0  0  0  0  0  0
   51.0930   57.7750   21.1650 H   0  0  0  0  0  0  0  0  0  0  0  0
   53.0300   57.8800   21.7120 C   0  0  0  0  0  0  0  0  0  0  0  0
   52.9880   59.3330   22.1110 C   0  0  0  0  0  0  0  0  0  0  0  0
   54.0730   57.2640   21.7740 O   0  0  0  0  0  0  0  0  0  0  0  0
   50.2390   49.8780   18.7860 C   0  0  1  0  0  0  0  0  0  0  0  0
   49.0580   49.0420   19.2840 C   0  0  0  0  0  0  0  0  0  0  0  0
   49.6890   49.4830   16.4060 N   0  0  0  0  0  0  0  0  0  0  0  0
   49.6800   48.5320   16.5990 H   0  0  0  0  0  0  0  0  0  0  0  0
   49.9550   50.3660   17.3890 C   0  0  0  0  0  0  0  0  0  0  0  0
   49.9660   51.5560   17.1480 O   0  0  0  0  0  0  0  0  0  0  0  0
   50.5440   49.5230   14.1160 C   0  0  0  0  0  0  0  0  0  0  0  0
   49.4130   49.9580   15.0490 C   0  0  1  0  0  0  0  0  0  0  0  0
   48.0910   49.3620   14.5590 C   0  0  0  0  0  0  0  0  0  0  0  0
   47.4950   48.4750   15.6530 C   0  0  0  0  0  0  0  0  0  0  0  0
   46.0650   48.9270   15.9540 C   0  0  0  0  0  0  0  0  0  0  0  0
   45.9630   49.3530   17.4200 C   0  0  0  0  0  0  0  0  0  0  0  0
   45.0980   47.7700   15.6910 C   0  0  0  0  0  0  0  0  0  0  0  0
  1  2  1  0  0  0  0
  1  3  1  0  0  0  0
  3  6  1  0  0  0  0
  3  5  2  0  0  0  0
  4  3  2  0  0  0  0
  6  7  2  0  0  0  0
  7  8  1  0  0  0  0
  9 12  1  0  0  0  0
  9  8  2  0  0  0  0
 10  9  1  0  0  0  0
 11 10  2  0  0  0  0
 11  6  1  0  0  0  0
 12 14  1  0  0  0  0
 13 12  1  0  0  0  0
 14 16  2  0  0  0  0
 14 15  1  0  0  0  0
 17 21  1  1  0  0  0
 17 18  1  0  0  0  0
 17  1  1  0  0  0  0
 19 20  1  0  0  0  0
 19 21  1  0  0  0  0
 22 21  2  0  0  0  0
 24 23  1  6  0  0  0
 24 19  1  0  0  0  0
 25 24  1  0  0  0  0
 25 26  1  0  0  0  0
 26 27  1  0  0  0  0
 27 28  1  0  0  0  0
 29 27  1  0  0  0  0
M  END
>  <MODEL>
7

>  <REMARK>
  Name = ZINC03429672
                            x       y       z     vdW  Elec       q    Type
                         _______ _______ _______ _____ _____    ______ ____

>  <TORSDO>
F 9

>  <minimizedAffinity>
-7.9517074889190171

$$$$
ZINC03429672
 OpenBabel10211215393D

 29 29  0  0  1  0  0  0  0  0999 V2000
   48.5150   50.9840   17.9770 N   0  0  0  0  0  0  0  0  0  0  0  0
   47.8350   51.0850   18.6620 H   0  0  0  0  0  0  0  0  0  0  0  0
   48.9350   49.4730   17.4450 S   0  0  0  0  0  0  0  0  0  0  0  0
   49.4960   48.7920   18.5580 O   0  0  0  0  0  0  0  0  0  0  0  0
   49.6430   49.6550   16.2270 O   0  0  0  0  0  0  0  0  0  0  0  0
   47.4430   48.6300   17.0390 C   0  0  0  0  0  0  0  0  0  0  0  0
   46.2310   49.2910   17.1240 C   0  0  0  0  0  0  0  0  0  0  0  0
   45.0600   48.6320   16.8070 C   0  0  0  0  0  0  0  0  0  0  0  0
   45.0990   47.3040   16.3990 C   0  0  0  0  0  0  0  0  0  0  0  0
   46.3180   46.6440   16.3140 C   0  0  0  0  0  0  0  0  0  0  0  0
   47.4860   47.3100   16.6290 C   0  0  0  0  0  0  0  0  0  0  0  0
   43.9130   46.6350   16.0780 N   0  0  0  0  0  0  0  0  0  0  0  0
   43.4570   46.1060   16.7510 H   0  0  0  0  0  0  0  0  0  0  0  0
   43.4060   46.7240   14.8330 C   0  0  0  0  0  0  0  0  0  0  0  0
   42.0700   46.1020   14.5180 C   0  0  0  0  0  0  0  0  0  0  0  0
   44.0230   47.3050   13.9660 O   0  0  0  0  0  0  0  0  0  0  0  0
   49.1690   52.1680   17.4130 C   0  0  1  0  0  0  0  0  0  0  0  0
   48.1070   53.1290   16.8750 C   0  0  0  0  0  0  0  0  0  0  0  0
   49.8660   54.1890   18.6590 N   0  0  0  0  0  0  0  0  0  0  0  0
   49.2730   54.7040   18.0910 H   0  0  0  0  0  0  0  0  0  0  0  0
   49.9730   52.8560   18.4860 C   0  0  0  0  0  0  0  0  0  0  0  0
   50.7160   52.2100   19.1960 O   0  0  0  0  0  0  0  0  0  0  0  0
   51.5700   55.8960   19.0610 C   0  0  0  0  0  0  0  0  0  0  0  0
   50.6480   54.8570   19.7020 C   0  0  1  0  0  0  0  0  0  0  0  0
   49.7000   55.5520   20.6820 C   0  0  0  0  0  0  0  0  0  0  0  0
   48.5670   56.2250   19.9050 C   0  0  0  0  0  0  0  0  0  0  0  0
   48.0320   57.4120   20.7070 C   0  0  0  0  0  0  0  0  0  0  0  0
   47.6830   58.5560   19.7530 C   0  0  0  0  0  0  0  0  0  0  0  0
   49.1000   57.8810   21.6980 C   0  0  0  0  0  0  0  0  0  0  0  0
  1  2  1  0  0  0  0
  3  1  1  0  0  0  0
  3  4  2  0  0  0  0
  5  3  2  0  0  0  0
  6  7  1  0  0  0  0
  6  3  1  0  0  0  0
  8  7  2  0  0  0  0
  9  8  1  0  0  0  0
 10  9  2  0  0  0  0
 10 11  1  0  0  0  0
 11  6  2  0  0  0  0
 12  9  1  0  0  0  0
 12 13  1  0  0  0  0
 14 12  1  0  0  0  0
 15 14  1  0  0  0  0
 16 14  2  0  0  0  0
 17 18  1  1  0  0  0
 17  1  1  0  0  0  0
 17 21  1  0  0  0  0
 20 19  1  0  0  0  0
 21 19  1  0  0  0  0
 21 22  2  0  0  0  0
 23 24  1  0  0  0  0
 24 19  1  6  0  0  0
 24 25  1  0  0  0  0
 26 25  1  0  0  0  0
 26 27  1  0  0  0  0
 27 29  1  0  0  0  0
 28 27  1  0  0  0  0
M  END
>  <MODEL>
8

>  <REMARK>
  Name = ZINC03429672
                            x       y       z     vdW  Elec       q    Type
                         _______ _______ _______ _____ _____    ______ ____

>  <TORSDO>
F 9

>  <minimizedAffinity>
-7.694282120388821

$$$$
ZINC03429672
 OpenBabel10211215393D

 29 29  0  0  1  0  0  0  0  0999 V2000
   50.6600   49.9670   18.4720 N   0  0  0  0  0  0  0  0  0  0  0  0
   51.4880   49.5310   18.2180 H   0  0  0  0  0  0  0  0  0  0  0  0
   49.5900   50.4590   17.3070 S   0  0  0  0  0  0  0  0  0  0  0  0
   50.3120   50.4960   16.0840 O   0  0  0  0  0  0  0  0  0  0  0  0
   48.9170   51.5960   17.8290 O   0  0  0  0  0  0  0  0  0  0  0  0
   48.3810   49.1890   17.1400 C   0  0  0  0  0  0  0  0  0  0  0  0
   48.7370   47.9620   16.6130 C   0  0  0  0  0  0  0  0  0  0  0  0
   47.7910   46.9650   16.4800 C   0  0  0  0  0  0  0  0  0  0  0  0
   46.4800   47.1950   16.8800 C   0  0  0  0  0  0  0  0  0  0  0  0
   46.1260   48.4290   17.4100 C   0  0  0  0  0  0  0  0  0  0  0  0
   47.0790   49.4200   17.5430 C   0  0  0  0  0  0  0  0  0  0  0  0
   45.5200   46.1860   16.7460 N   0  0  0  0  0  0  0  0  0  0  0  0
   45.2780   45.6430   17.5120 H   0  0  0  0  0  0  0  0  0  0  0  0
   44.9310   45.9710   15.5540 C   0  0  0  0  0  0  0  0  0  0  0  0
   43.8130   44.9660   15.4370 C   0  0  0  0  0  0  0  0  0  0  0  0
   45.3000   46.5840   14.5750 O   0  0  0  0  0  0  0  0  0  0  0  0
   50.3540   50.1890   19.8880 C   0  0  1  0  0  0  0  0  0  0  0  0
   50.7440   48.9490   20.6950 C   0  0  0  0  0  0  0  0  0  0  0  0
   50.7370   52.6270   20.0660 N   0  0  0  0  0  0  0  0  0  0  0  0
   49.9520   52.7580   19.5110 H   0  0  0  0  0  0  0  0  0  0  0  0
   51.1320   51.3790   20.3890 C   0  0  0  0  0  0  0  0  0  0  0  0
   52.1130   51.2140   21.0820 O   0  0  0  0  0  0  0  0  0  0  0  0
   52.4490   54.2650   19.4580 C   0  0  0  0  0  0  0  0  0  0  0  0
   51.4930   53.7830   20.5520 C   0  0  1  0  0  0  0  0  0  0  0  0
   50.5240   54.9110   20.9140 C   0  0  0  0  0  0  0  0  0  0  0  0
   51.0970   55.7210   22.0780 C   0  0  0  0  0  0  0  0  0  0  0  0
   50.8430   57.2100   21.8380 C   0  0  0  0  0  0  0  0  0  0  0  0
   49.3480   57.4410   21.6100 C   0  0  0  0  0  0  0  0  0  0  0  0
   51.6250   57.6690   20.6050 C   0  0  0  0  0  0  0  0  0  0  0  0
  2  1  1  0  0  0  0
  3  5  2  0  0  0  0
  3  1  1  0  0  0  0
  4  3  2  0  0  0  0
  6  3  1  0  0  0  0
  6 11  2  0  0  0  0
  7  6  1  0  0  0  0
  8  7  2  0  0  0  0
  8  9  1  0  0  0  0
  9 10  2  0  0  0  0
 10 11  1  0  0  0  0
 12  9  1  0  0  0  0
 12 13  1  0  0  0  0
 14 12  1  0  0  0  0
 15 14  1  0  0  0  0
 16 14  2  0  0  0  0
 17  1  1  6  0  0  0
 17 21  1  0  0  0  0
 17 18  1  0  0  0  0
 19 21  1  0  0  0  0
 19 24  1  0  0  0  0
 20 19  1  0  0  0  0
 21 22  2  0  0  0  0
 24 23  1  6  0  0  0
 24 25  1  0  0  0  0
 25 26  1  0  0  0  0
 27 26  1  0  0  0  0
 28 27  1  0  0  0  0
 29 27  1  0  0  0  0
M  END
>  <MODEL>
9

>  <REMARK>
  Name = ZINC03429672
                            x       y       z     vdW  Elec       q    Type
                         _______ _______ _______ _____ _____    ______ ____

>  <TORSDO>
F 9

>  <minimizedAffinity>
-7.4859806792070946

$$$$
ZINC65419303
 OpenBabel10211215423D

 29 29  0  0  1  0  0  0  0  0999 V2000
   49.5230   48.9020   16.8030 N   0  0  0  0  0  0  0  0  0  0  0  0
   50.1300   49.0100   16.0540 H   0  0  0  0  0  0  0  0  0  0  0  0
   49.7420   49.5730   17.9510 C   0  0  0  0  0  0  0  0  0  0  0  0
   50.8050   50.3940   18.0590 N   0  0  0  0  0  0  0  0  0  0  0  0
   51.4530   50.4470   17.3390 H   0  0  0  0  0  0  0  0  0  0  0  0
   48.9810   49.4370   18.8890 O   0  0  0  0  0  0  0  0  0  0  0  0
   50.9740   51.1730   19.2100 C   0  0  0  0  0  0  0  0  0  0  0  0
   51.7930   50.7260   20.2380 C   0  0  0  0  0  0  0  0  0  0  0  0
   51.9600   51.4940   21.3750 C   0  0  0  0  0  0  0  0  0  0  0  0
   51.3120   52.7080   21.4920 C   0  0  0  0  0  0  0  0  0  0  0  0
   50.4920   53.1610   20.4670 C   0  0  0  0  0  0  0  0  0  0  0  0
   50.3270   52.3950   19.3220 C   0  0  0  0  0  0  0  0  0  0  0  0
   49.8350   54.3910   20.5870 N   0  0  0  0  0  0  0  0  0  0  0  0
   48.9920   54.4470   21.0630 H   0  0  0  0  0  0  0  0  0  0  0  0
   50.3750   55.4990   20.0400 C   0  0  0  0  0  0  0  0  0  0  0  0
   51.4670   55.4470   19.5180 O   0  0  0  0  0  0  0  0  0  0  0  0
   49.6190   56.8020   20.0780 C   0  0  1  0  0  0  0  0  0  0  0  0
   48.1150   56.5210   20.0720 C   0  0  0  0  0  0  0  0  0  0  0  0
   49.9650   57.5200   21.2650 O   0  0  0  0  0  0  0  0  0  0  0  0
   48.8770   58.2390   21.8480 C   0  0  0  0  0  0  0  0  0  0  0  0
   48.8480   46.5570   16.6370 C   0  0  0  0  0  0  0  0  0  0  0  0
   48.3680   48.0090   16.6850 C   0  0  2  0  0  0  0  0  0  0  0  0
   47.6000   48.3340   15.4030 C   0  0  0  0  0  0  0  0  0  0  0  0
   46.2730   48.7460   15.7340 O   0  0  0  0  0  0  0  0  0  0  0  0
   45.5710   47.8250   16.5720 C   0  0  0  0  0  0  0  0  0  0  0  0
   45.1420   48.5320   17.8590 C   0  0  0  0  0  0  0  0  0  0  0  0
   46.0870   48.2870   18.8630 F   0  0  0  0  0  0  0  0  0  0  0  0
   43.8940   48.0460   18.2650 F   0  0  0  0  0  0  0  0  0  0  0  0
   45.0540   49.9090   17.6280 F   0  0  0  0  0  0  0  0  0  0  0  0
  1  3  1  0  0  0  0
  2  1  1  0  0  0  0
  3  4  1  0  0  0  0
  3  6  2  0  0  0  0
  4  7  1  0  0  0  0
  5  4  1  0  0  0  0
  7 12  2  0  0  0  0
  7  8  1  0  0  0  0
  8  9  2  0  0  0  0
  9 10  1  0  0  0  0
 11 13  1  0  0  0  0
 11 10  2  0  0  0  0
 12 11  1  0  0  0  0
 13 14  1  0  0  0  0
 15 13  1  0  0  0  0
 16 15  2  0  0  0  0
 17 15  1  1  0  0  0
 17 19  1  0  0  0  0
 18 17  1  0  0  0  0
 19 20  1  0  0  0  0
 21 22  1  0  0  0  0
 22 23  1  6  0  0  0
 22  1  1  0  0  0  0
 23 24  1  0  0  0  0
 24 25  1  0  0  0  0
 25 26  1  0  0  0  0
 26 28  1  0  0  0  0
 26 27  1  0  0  0  0
 29 26  1  0  0  0  0
M  END
>  <MODEL>
1

>  <REMARK>
  Name = ZINC65419303
                            x       y       z     vdW  Elec       q    Type
                         _______ _______ _______ _____ _____    ______ ____

>  <TORSDO>
F 9

>  <minimizedAffinity>
-7.6581017264973168

$$$$
ZINC65419303
 OpenBabel10211215423D

 29 29  0  0  1  0  0  0  0  0999 V2000
   49.2620   56.3100   19.6700 N   0  0  0  0  0  0  0  0  0  0  0  0
   49.2910   56.8540   18.8670 H   0  0  0  0  0  0  0  0  0  0  0  0
   49.7320   55.0460   19.6460 C   0  0  0  0  0  0  0  0  0  0  0  0
   50.2390   54.5380   18.5050 N   0  0  0  0  0  0  0  0  0  0  0  0
   50.1990   55.0530   17.6840 H   0  0  0  0  0  0  0  0  0  0  0  0
   49.6960   54.3660   20.6520 O   0  0  0  0  0  0  0  0  0  0  0  0
   50.8230   53.2660   18.5050 C   0  0  0  0  0  0  0  0  0  0  0  0
   52.1000   53.0870   19.0220 C   0  0  0  0  0  0  0  0  0  0  0  0
   52.6780   51.8320   19.0220 C   0  0  0  0  0  0  0  0  0  0  0  0
   51.9880   50.7520   18.5070 C   0  0  0  0  0  0  0  0  0  0  0  0
   50.7110   50.9240   17.9890 C   0  0  0  0  0  0  0  0  0  0  0  0
   50.1250   52.1820   17.9930 C   0  0  0  0  0  0  0  0  0  0  0  0
   50.0130   49.8290   17.4670 N   0  0  0  0  0  0  0  0  0  0  0  0
   50.0800   49.6150   16.5230 H   0  0  0  0  0  0  0  0  0  0  0  0
   49.2480   49.0700   18.2760 C   0  0  0  0  0  0  0  0  0  0  0  0
   49.2280   49.2840   19.4700 O   0  0  0  0  0  0  0  0  0  0  0  0
   48.4140   47.9550   17.6980 C   0  0  1  0  0  0  0  0  0  0  0  0
   46.9360   48.2190   17.9900 C   0  0  0  0  0  0  0  0  0  0  0  0
   48.6160   47.8930   16.2840 O   0  0  0  0  0  0  0  0  0  0  0  0
   47.4270   48.0850   15.5170 C   0  0  0  0  0  0  0  0  0  0  0  0
   47.5350   57.7850   20.5780 C   0  0  0  0  0  0  0  0  0  0  0  0
   48.7110   56.8630   20.9100 C   0  0  2  0  0  0  0  0  0  0  0  0
   49.7940   57.6600   21.6390 C   0  0  0  0  0  0  0  0  0  0  0  0
   50.8180   58.0280   20.7140 O   0  0  0  0  0  0  0  0  0  0  0  0
   52.1410   57.9420   21.2490 C   0  0  0  0  0  0  0  0  0  0  0  0
   52.8830   56.7790   20.5860 C   0  0  0  0  0  0  0  0  0  0  0  0
   54.2630   57.0030   20.6630 F   0  0  0  0  0  0  0  0  0  0  0  0
   52.5000   56.6870   19.2430 F   0  0  0  0  0  0  0  0  0  0  0  0
   52.5670   55.5870   21.2460 F   0  0  0  0  0  0  0  0  0  0  0  0
  2  1  1  0  0  0  0
  3  1  1  0  0  0  0
  3  6  2  0  0  0  0
  4  7  1  0  0  0  0
  4  3  1  0  0  0  0
  5  4  1  0  0  0  0
  7  8  2  0  0  0  0
  9  8  1  0  0  0  0
 10  9  2  0  0  0  0
 11 12  2  0  0  0  0
 11 10  1  0  0  0  0
 12  7  1  0  0  0  0
 13 11  1  0  0  0  0
 13 15  1  0  0  0  0
 14 13  1  0  0  0  0
 15 16  2  0  0  0  0
 17 19  1  6  0  0  0
 17 18  1  0  0  0  0
 17 15  1  0  0  0  0
 20 19  1  0  0  0  0
 21 22  1  0  0  0  0
 22  1  1  6  0  0  0
 22 23  1  0  0  0  0
 24 25  1  0  0  0  0
 24 23  1  0  0  0  0
 26 27  1  0  0  0  0
 26 29  1  0  0  0  0
 26 25  1  0  0  0  0
 28 26  1  0  0  0  0
M  END
>  <MODEL>
2

>  <REMARK>
  Name = ZINC65419303
                            x       y       z     vdW  Elec       q    Type
                         _______ _______ _______ _____ _____    ______ ____

>  <TORSDO>
F 9

>  <minimizedAffinity>
-7.5845977746667232

$$$$
ZINC65419303
 OpenBabel10211215423D

 29 29  0  0  1  0  0  0  0  0999 V2000
   50.5680   50.3300   16.0220 N   0  0  0  0  0  0  0  0  0  0  0  0
   51.3570   50.3890   15.4610 H   0  0  0  0  0  0  0  0  0  0  0  0
   50.6120   50.7640   17.2970 C   0  0  0  0  0  0  0  0  0  0  0  0
   51.7540   51.2780   17.7940 N   0  0  0  0  0  0  0  0  0  0  0  0
   52.5640   51.2690   17.2600 H   0  0  0  0  0  0  0  0  0  0  0  0
   49.6230   50.6900   17.9980 O   0  0  0  0  0  0  0  0  0  0  0  0
   51.7720   51.8270   19.0810 C   0  0  0  0  0  0  0  0  0  0  0  0
   51.7010   50.9960   20.1930 C   0  0  0  0  0  0  0  0  0  0  0  0
   51.7180   51.5370   21.4640 C   0  0  0  0  0  0  0  0  0  0  0  0
   51.8060   52.9050   21.6350 C   0  0  0  0  0  0  0  0  0  0  0  0
   51.8780   53.7410   20.5270 C   0  0  0  0  0  0  0  0  0  0  0  0
   51.8670   53.2010   19.2490 C   0  0  0  0  0  0  0  0  0  0  0  0
   51.9660   55.1270   20.7010 N   0  0  0  0  0  0  0  0  0  0  0  0
   52.8330   55.5620   20.7040 H   0  0  0  0  0  0  0  0  0  0  0  0
   50.8450   55.8580   20.8650 C   0  0  0  0  0  0  0  0  0  0  0  0
   49.7580   55.3290   20.7790 O   0  0  0  0  0  0  0  0  0  0  0  0
   50.9440   57.3330   21.1570 C   0  0  1  0  0  0  0  0  0  0  0  0
   49.6640   57.8030   21.8510 C   0  0  0  0  0  0  0  0  0  0  0  0
   52.0650   57.5770   22.0090 O   0  0  0  0  0  0  0  0  0  0  0  0
   52.8630   58.6940   21.6160 C   0  0  0  0  0  0  0  0  0  0  0  0
   48.2050   50.8050   15.6020 C   0  0  0  0  0  0  0  0  0  0  0  0
   49.3270   49.7710   15.4800 C   0  0  2  0  0  0  0  0  0  0  0  0
   48.9480   48.5140   16.2660 C   0  0  0  0  0  0  0  0  0  0  0  0
   47.5290   48.3500   16.2470 O   0  0  0  0  0  0  0  0  0  0  0  0
   47.0220   47.5550   17.3210 C   0  0  0  0  0  0  0  0  0  0  0  0
   46.5530   48.4700   18.4540 C   0  0  0  0  0  0  0  0  0  0  0  0
   47.6230   48.7300   19.3170 F   0  0  0  0  0  0  0  0  0  0  0  0
   45.5230   47.8410   19.1650 F   0  0  0  0  0  0  0  0  0  0  0  0
   46.0820   49.6730   17.9180 F   0  0  0  0  0  0  0  0  0  0  0  0
  1  3  1  0  0  0  0
  2  1  1  0  0  0  0
  3  4  1  0  0  0  0
  3  6  2  0  0  0  0
  4  7  1  0  0  0  0
  5  4  1  0  0  0  0
  7 12  2  0  0  0  0
  7  8  1  0  0  0  0
  8  9  2  0  0  0  0
  9 10  1  0  0  0  0
 11 13  1  0  0  0  0
 11 10  2  0  0  0  0
 12 11  1  0  0  0  0
 13 14  1  0  0  0  0
 13 15  1  0  0  0  0
 16 15  2  0  0  0  0
 17 15  1  1  0  0  0
 17 18  1  0  0  0  0
 17 19  1  0  0  0  0
 20 19  1  0  0  0  0
 22 21  1  1  0  0  0
 22  1  1  0  0  0  0
 22 23  1  0  0  0  0
 24 23  1  0  0  0  0
 24 25  1  0  0  0  0
 25 26  1  0  0  0  0
 26 28  1  0  0  0  0
 26 27  1  0  0  0  0
 29 26  1  0  0  0  0
M  END
>  <MODEL>
3

>  <REMARK>
  Name = ZINC65419303
                            x       y       z     vdW  Elec       q    Type
                         _______ _______ _______ _____ _____    ______ ____

>  <TORSDO>
F 9

>  <minimizedAffinity>
-7.4423890056780744

$$$$
ZINC65419303
 OpenBabel10211215423D

 29 29  0  0  1  0  0  0  0  0999 V2000
   48.2760   50.3510   15.7660 N   0  0  0  0  0  0  0  0  0  0  0  0
   47.3900   50.2140   15.3940 H   0  0  0  0  0  0  0  0  0  0  0  0
   48.6200   51.5550   16.2640 C   0  0  0  0  0  0  0  0  0  0  0  0
   47.7340   52.5700   16.2440 N   0  0  0  0  0  0  0  0  0  0  0  0
   46.8760   52.4570   15.8060 H   0  0  0  0  0  0  0  0  0  0  0  0
   49.7300   51.7250   16.7280 O   0  0  0  0  0  0  0  0  0  0  0  0
   48.0510   53.7880   16.8560 C   0  0  0  0  0  0  0  0  0  0  0  0
   47.8500   54.9820   16.1760 C   0  0  0  0  0  0  0  0  0  0  0  0
   48.1640   56.1850   16.7790 C   0  0  0  0  0  0  0  0  0  0  0  0
   48.6790   56.2040   18.0610 C   0  0  0  0  0  0  0  0  0  0  0  0
   48.8810   55.0130   18.7480 C   0  0  0  0  0  0  0  0  0  0  0  0
   48.5620   53.8040   18.1470 C   0  0  0  0  0  0  0  0  0  0  0  0
   49.4030   55.0330   20.0460 N   0  0  0  0  0  0  0  0  0  0  0  0
   48.8060   55.0760   20.8090 H   0  0  0  0  0  0  0  0  0  0  0  0
   50.7370   54.9940   20.2360 C   0  0  0  0  0  0  0  0  0  0  0  0
   51.4810   54.8560   19.2890 O   0  0  0  0  0  0  0  0  0  0  0  0
   51.3040   55.1210   21.6270 C   0  0  1  0  0  0  0  0  0  0  0  0
   51.5500   53.7270   22.2080 C   0  0  0  0  0  0  0  0  0  0  0  0
   52.5380   55.8410   21.5750 O   0  0  0  0  0  0  0  0  0  0  0  0
   52.4290   57.2120   21.9610 C   0  0  0  0  0  0  0  0  0  0  0  0
   50.1370   49.3300   14.5500 C   0  0  0  0  0  0  0  0  0  0  0  0
   49.2390   49.2470   15.7860 C   0  0  2  0  0  0  0  0  0  0  0  0
   48.4880   47.9140   15.7820 C   0  0  0  0  0  0  0  0  0  0  0  0
   48.2210   47.5130   17.1270 O   0  0  0  0  0  0  0  0  0  0  0  0
   46.8300   47.3710   17.4260 C   0  0  0  0  0  0  0  0  0  0  0  0
   46.4380   48.3730   18.5130 C   0  0  0  0  0  0  0  0  0  0  0  0
   45.5730   49.3320   17.9730 F   0  0  0  0  0  0  0  0  0  0  0  0
   47.5870   49.0040   19.0030 F   0  0  0  0  0  0  0  0  0  0  0  0
   45.7940   47.7010   19.5570 F   0  0  0  0  0  0  0  0  0  0  0  0
  1 22  1  0  0  0  0
  1  3  1  0  0  0  0
  2  1  1  0  0  0  0
  3  6  2  0  0  0  0
  4  3  1  0  0  0  0
  4  7  1  0  0  0  0
  5  4  1  0  0  0  0
  7 12  2  0  0  0  0
  8  9  2  0  0  0  0
  8  7  1  0  0  0  0
  9 10  1  0  0  0  0
 10 11  2  0  0  0  0
 11 13  1  0  0  0  0
 12 11  1  0  0  0  0
 13 15  1  0  0  0  0
 13 14  1  0  0  0  0
 16 15  2  0  0  0  0
 17 15  1  6  0  0  0
 17 18  1  0  0  0  0
 19 17  1  0  0  0  0
 19 20  1  0  0  0  0
 22 21  1  6  0  0  0
 23 22  1  0  0  0  0
 23 24  1  0  0  0  0
 24 25  1  0  0  0  0
 25 26  1  0  0  0  0
 26 28  1  0  0  0  0
 26 29  1  0  0  0  0
 27 26  1  0  0  0  0
M  END
>  <MODEL>
4

>  <REMARK>
  Name = ZINC65419303
                            x       y       z     vdW  Elec       q    Type
                         _______ _______ _______ _____ _____    ______ ____

>  <TORSDO>
F 9

>  <minimizedAffinity>
-7.2574473502872063

$$$$
ZINC65419303
 OpenBabel10211215423D

 29 29  0  0  1  0  0  0  0  0999 V2000
   50.7270   49.4310   18.7120 N   0  0  0  0  0  0  0  0  0  0  0  0
   51.2430   48.6090   18.7300 H   0  0  0  0  0  0  0  0  0  0  0  0
   49.4450   49.4130   18.2970 C   0  0  0  0  0  0  0  0  0  0  0  0
   48.8800   48.2550   17.9050 N   0  0  0  0  0  0  0  0  0  0  0  0
   49.4140   47.4470   17.8510 H   0  0  0  0  0  0  0  0  0  0  0  0
   48.8000   50.4430   18.2750 O   0  0  0  0  0  0  0  0  0  0  0  0
   47.5200   48.2160   17.5760 C   0  0  0  0  0  0  0  0  0  0  0  0
   46.5620   48.1470   18.5800 C   0  0  0  0  0  0  0  0  0  0  0  0
   45.2200   48.1070   18.2560 C   0  0  0  0  0  0  0  0  0  0  0  0
   44.8250   48.1370   16.9330 C   0  0  0  0  0  0  0  0  0  0  0  0
   45.7770   48.2070   15.9240 C   0  0  0  0  0  0  0  0  0  0  0  0
   47.1260   48.2520   16.2460 C   0  0  0  0  0  0  0  0  0  0  0  0
   45.3760   48.2350   14.5830 N   0  0  0  0  0  0  0  0  0  0  0  0
   45.3100   49.0820   14.1140 H   0  0  0  0  0  0  0  0  0  0  0  0
   45.0800   47.0860   13.9440 C   0  0  0  0  0  0  0  0  0  0  0  0
   45.2410   46.0220   14.5020 O   0  0  0  0  0  0  0  0  0  0  0  0
   44.5480   47.1240   12.5340 C   0  0  1  0  0  0  0  0  0  0  0  0
   44.3070   48.5770   12.1180 C   0  0  0  0  0  0  0  0  0  0  0  0
   45.4980   46.5260   11.6500 O   0  0  0  0  0  0  0  0  0  0  0  0
   45.6570   47.2210   10.4120 C   0  0  0  0  0  0  0  0  0  0  0  0
   52.2440   51.2210   18.0220 C   0  0  0  0  0  0  0  0  0  0  0  0
   51.3420   50.6900   19.1390 C   0  0  2  0  0  0  0  0  0  0  0  0
   52.1780   50.4490   20.3970 C   0  0  0  0  0  0  0  0  0  0  0  0
   52.5900   51.7030   20.9430 O   0  0  0  0  0  0  0  0  0  0  0  0
   51.6400   52.2890   21.8360 C   0  0  0  0  0  0  0  0  0  0  0  0
   51.4530   53.7660   21.4850 C   0  0  0  0  0  0  0  0  0  0  0  0
   52.3240   54.1120   20.4450 F   0  0  0  0  0  0  0  0  0  0  0  0
   51.7340   54.5520   22.6080 F   0  0  0  0  0  0  0  0  0  0  0  0
   50.1330   53.9850   21.0800 F   0  0  0  0  0  0  0  0  0  0  0  0
  1  2  1  0  0  0  0
  1 22  1  0  0  0  0
  3  1  1  0  0  0  0
  4  3  1  0  0  0  0
  5  4  1  0  0  0  0
  6  3  2  0  0  0  0
  7  4  1  0  0  0  0
  7  8  2  0  0  0  0
  9  8  1  0  0  0  0
 10  9  2  0  0  0  0
 11 12  2  0  0  0  0
 11 10  1  0  0  0  0
 12  7  1  0  0  0  0
 13 11  1  0  0  0  0
 14 13  1  0  0  0  0
 15 16  2  0  0  0  0
 15 13  1  0  0  0  0
 17 19  1  1  0  0  0
 17 15  1  0  0  0  0
 18 17  1  0  0  0  0
 20 19  1  0  0  0  0
 22 21  1  6  0  0  0
 22 23  1  0  0  0  0
 23 24  1  0  0  0  0
 24 25  1  0  0  0  0
 26 25  1  0  0  0  0
 26 28  1  0  0  0  0
 27 26  1  0  0  0  0
 29 26  1  0  0  0  0
M  END
>  <MODEL>
5

>  <REMARK>
  Name = ZINC65419303
                            x       y       z     vdW  Elec       q    Type
                         _______ _______ _______ _____ _____    ______ ____

>  <TORSDO>
F 9

>  <minimizedAffinity>
-7.1327457748085603

$$$$
ZINC65419303
 OpenBabel10211215423D

 29 29  0  0  1  0  0  0  0  0999 V2000
   52.1370   55.4970   21.1440 N   0  0  0  0  0  0  0  0  0  0  0  0
   52.0200   55.5680   22.1050 H   0  0  0  0  0  0  0  0  0  0  0  0
   52.0760   54.2920   20.5440 C   0  0  0  0  0  0  0  0  0  0  0  0
   51.8550   53.1840   21.2790 N   0  0  0  0  0  0  0  0  0  0  0  0
   51.8130   53.2430   22.2460 H   0  0  0  0  0  0  0  0  0  0  0  0
   52.2220   54.2050   19.3410 O   0  0  0  0  0  0  0  0  0  0  0  0
   51.6850   51.9480   20.6460 C   0  0  0  0  0  0  0  0  0  0  0  0
   52.6580   50.9640   20.7680 C   0  0  0  0  0  0  0  0  0  0  0  0
   52.4920   49.7430   20.1430 C   0  0  0  0  0  0  0  0  0  0  0  0
   51.3570   49.4960   19.3950 C   0  0  0  0  0  0  0  0  0  0  0  0
   50.3790   50.4750   19.2700 C   0  0  0  0  0  0  0  0  0  0  0  0
   50.5410   51.7010   19.9010 C   0  0  0  0  0  0  0  0  0  0  0  0
   49.2310   50.2250   18.5110 N   0  0  0  0  0  0  0  0  0  0  0  0
   48.3970   50.0010   18.9520 H   0  0  0  0  0  0  0  0  0  0  0  0
   49.2830   50.2940   17.1660 C   0  0  0  0  0  0  0  0  0  0  0  0
   50.3020   50.6550   16.6160 O   0  0  0  0  0  0  0  0  0  0  0  0
   48.0760   49.9230   16.3440 C   0  0  1  0  0  0  0  0  0  0  0  0
   46.8040   50.2960   17.1090 C   0  0  0  0  0  0  0  0  0  0  0  0
   48.1090   50.6280   15.1020 O   0  0  0  0  0  0  0  0  0  0  0  0
   48.2190   49.7820   13.9550 C   0  0  0  0  0  0  0  0  0  0  0  0
   53.7590   57.2690   20.6810 C   0  0  0  0  0  0  0  0  0  0  0  0
   52.3770   56.7020   20.3470 C   0  0  2  0  0  0  0  0  0  0  0  0
   51.3060   57.7470   20.6660 C   0  0  0  0  0  0  0  0  0  0  0  0
   50.1450   57.0970   21.1850 O   0  0  0  0  0  0  0  0  0  0  0  0
   49.0170   57.1340   20.3070 C   0  0  0  0  0  0  0  0  0  0  0  0
   47.9810   58.1190   20.8500 C   0  0  0  0  0  0  0  0  0  0  0  0
   47.9550   59.2620   20.0420 F   0  0  0  0  0  0  0  0  0  0  0  0
   48.3240   58.4830   22.1580 F   0  0  0  0  0  0  0  0  0  0  0  0
   46.7190   57.5180   20.8490 F   0  0  0  0  0  0  0  0  0  0  0  0
  1  2  1  0  0  0  0
  3  1  1  0  0  0  0
  3  4  1  0  0  0  0
  4  5  1  0  0  0  0
  6  3  2  0  0  0  0
  7  8  1  0  0  0  0
  7  4  1  0  0  0  0
  9  8  2  0  0  0  0
 10  9  1  0  0  0  0
 11 10  2  0  0  0  0
 11 12  1  0  0  0  0
 12  7  2  0  0  0  0
 13 14  1  0  0  0  0
 13 11  1  0  0  0  0
 15 13  1  0  0  0  0
 16 15  2  0  0  0  0
 17 19  1  1  0  0  0
 17 18  1  0  0  0  0
 17 15  1  0  0  0  0
 20 19  1  0  0  0  0
 22 23  1  1  0  0  0
 22 21  1  0  0  0  0
 22  1  1  0  0  0  0
 23 24  1  0  0  0  0
 25 26  1  0  0  0  0
 25 24  1  0  0  0  0
 26 28  1  0  0  0  0
 27 26  1  0  0  0  0
 29 26  1  0  0  0  0
M  END
>  <MODEL>
6

>  <REMARK>
  Name = ZINC65419303
                            x       y       z     vdW  Elec       q    Type
                         _______ _______ _______ _____ _____    ______ ____

>  <TORSDO>
F 9

>  <minimizedAffinity>
-7.1084871218446501

$$$$
ZINC65419303
 OpenBabel10211215423D

 29 29  0  0  1  0  0  0  0  0999 V2000
   51.1040   53.1080   18.9650 N   0  0  0  0  0  0  0  0  0  0  0  0
   51.8940   52.7610   19.4080 H   0  0  0  0  0  0  0  0  0  0  0  0
   50.4590   52.3580   18.0490 C   0  0  0  0  0  0  0  0  0  0  0  0
   50.9130   51.1270   17.7470 N   0  0  0  0  0  0  0  0  0  0  0  0
   51.7440   50.8070   18.1320 H   0  0  0  0  0  0  0  0  0  0  0  0
   49.4690   52.7950   17.4950 O   0  0  0  0  0  0  0  0  0  0  0  0
   50.1850   50.3070   16.8770 C   0  0  0  0  0  0  0  0  0  0  0  0
   50.4480   50.3320   15.5130 C   0  0  0  0  0  0  0  0  0  0  0  0
   49.7300   49.5240   14.6530 C   0  0  0  0  0  0  0  0  0  0  0  0
   48.7480   48.6870   15.1470 C   0  0  0  0  0  0  0  0  0  0  0  0
   48.4800   48.6560   16.5100 C   0  0  0  0  0  0  0  0  0  0  0  0
   49.2040   49.4630   17.3770 C   0  0  0  0  0  0  0  0  0  0  0  0
   47.4840   47.8090   17.0090 N   0  0  0  0  0  0  0  0  0  0  0  0
   47.7120   46.9160   17.3100 H   0  0  0  0  0  0  0  0  0  0  0  0
   46.2070   48.2340   17.0710 C   0  0  0  0  0  0  0  0  0  0  0  0
   45.9330   49.3780   16.7740 O   0  0  0  0  0  0  0  0  0  0  0  0
   45.1180   47.2890   17.5090 C   0  0  1  0  0  0  0  0  0  0  0  0
   44.8120   47.5140   18.9910 C   0  0  0  0  0  0  0  0  0  0  0  0
   43.9390   47.5280   16.7370 O   0  0  0  0  0  0  0  0  0  0  0  0
   43.9140   46.8410   15.4850 C   0  0  0  0  0  0  0  0  0  0  0  0
   51.7720   55.4430   19.2520 C   0  0  0  0  0  0  0  0  0  0  0  0
   50.6100   54.4480   19.2950 C   0  0  2  0  0  0  0  0  0  0  0  0
   50.0000   54.4360   20.6970 C   0  0  0  0  0  0  0  0  0  0  0  0
   49.5680   55.7540   21.0400 O   0  0  0  0  0  0  0  0  0  0  0  0
   48.4830   56.2350   20.2430 C   0  0  0  0  0  0  0  0  0  0  0  0
   48.0830   57.6330   20.7190 C   0  0  0  0  0  0  0  0  0  0  0  0
   48.5320   58.5860   19.7980 F   0  0  0  0  0  0  0  0  0  0  0  0
   48.6630   57.8840   21.9690 F   0  0  0  0  0  0  0  0  0  0  0  0
   46.6910   57.7090   20.8270 F   0  0  0  0  0  0  0  0  0  0  0  0
  1  2  1  0  0  0  0
  3  1  1  0  0  0  0
  4  3  1  0  0  0  0
  4  5  1  0  0  0  0
  6  3  2  0  0  0  0
  7 12  1  0  0  0  0
  7  4  1  0  0  0  0
  8  7  2  0  0  0  0
  9 10  2  0  0  0  0
  9  8  1  0  0  0  0
 10 11  1  0  0  0  0
 11 13  1  0  0  0  0
 11 12  2  0  0  0  0
 13 15  1  0  0  0  0
 13 14  1  0  0  0  0
 15 17  1  0  0  0  0
 16 15  2  0  0  0  0
 17 19  1  1  0  0  0
 17 18  1  0  0  0  0
 20 19  1  0  0  0  0
 21 22  1  0  0  0  0
 22  1  1  1  0  0  0
 22 23  1  0  0  0  0
 23 24  1  0  0  0  0
 25 26  1  0  0  0  0
 25 24  1  0  0  0  0
 26 29  1  0  0  0  0
 26 28  1  0  0  0  0
 27 26  1  0  0  0  0
M  END
>  <MODEL>
7

>  <REMARK>
  Name = ZINC65419303
                            x       y       z     vdW  Elec       q    Type
                         _______ _______ _______ _____ _____    ______ ____

>  <TORSDO>
F 9

>  <minimizedAffinity>
-6.9540168848148918

$$$$
ZINC65419303
 OpenBabel10211215423D

 29 29  0  0  1  0  0  0  0  0999 V2000
   51.1340   54.3000   18.5850 N   0  0  0  0  0  0  0  0  0  0  0  0
   51.6810   54.4530   17.7990 H   0  0  0  0  0  0  0  0  0  0  0  0
   50.5040   53.1190   18.7480 C   0  0  0  0  0  0  0  0  0  0  0  0
   50.6330   52.1530   17.8190 N   0  0  0  0  0  0  0  0  0  0  0  0
   51.1180   52.3310   16.9980 H   0  0  0  0  0  0  0  0  0  0  0  0
   49.8190   52.9280   19.7330 O   0  0  0  0  0  0  0  0  0  0  0  0
   50.0690   50.8910   18.0380 C   0  0  0  0  0  0  0  0  0  0  0  0
   50.4560   50.1370   19.1390 C   0  0  0  0  0  0  0  0  0  0  0  0
   49.9000   48.8910   19.3550 C   0  0  0  0  0  0  0  0  0  0  0  0
   48.9570   48.3910   18.4780 C   0  0  0  0  0  0  0  0  0  0  0  0
   48.5650   49.1400   17.3760 C   0  0  0  0  0  0  0  0  0  0  0  0
   49.1170   50.3940   17.1590 C   0  0  0  0  0  0  0  0  0  0  0  0
   47.6100   48.6320   16.4880 N   0  0  0  0  0  0  0  0  0  0  0  0
   47.8870   48.0710   15.7460 H   0  0  0  0  0  0  0  0  0  0  0  0
   46.3060   48.9230   16.6620 C   0  0  0  0  0  0  0  0  0  0  0  0
   45.9500   49.5540   17.6340 O   0  0  0  0  0  0  0  0  0  0  0  0
   45.2900   48.4640   15.6480 C   0  0  1  0  0  0  0  0  0  0  0  0
   46.0100   47.8470   14.4470 C   0  0  0  0  0  0  0  0  0  0  0  0
   44.4310   47.4880   16.2410 O   0  0  0  0  0  0  0  0  0  0  0  0
   44.0710   46.4190   15.3640 C   0  0  0  0  0  0  0  0  0  0  0  0
   49.8250   56.2650   19.2220 C   0  0  0  0  0  0  0  0  0  0  0  0
   50.9940   55.3510   19.5960 C   0  0  2  0  0  0  0  0  0  0  0  0
   52.2830   56.1730   19.6600 C   0  0  0  0  0  0  0  0  0  0  0  0
   52.7770   56.1790   21.0000 O   0  0  0  0  0  0  0  0  0  0  0  0
   52.3420   57.2980   21.7750 C   0  0  0  0  0  0  0  0  0  0  0  0
   53.4720   58.3240   21.8680 C   0  0  0  0  0  0  0  0  0  0  0  0
   52.9730   59.5210   22.3960 F   0  0  0  0  0  0  0  0  0  0  0  0
   53.9950   58.5600   20.5910 F   0  0  0  0  0  0  0  0  0  0  0  0
   54.4810   57.8320   22.7020 F   0  0  0  0  0  0  0  0  0  0  0  0
  1  3  1  0  0  0  0
  2  1  1  0  0  0  0
  3  6  2  0  0  0  0
  4  7  1  0  0  0  0
  4  3  1  0  0  0  0
  5  4  1  0  0  0  0
  7  8  2  0  0  0  0
  8  9  1  0  0  0  0
 10  9  2  0  0  0  0
 11 10  1  0  0  0  0
 12 11  2  0  0  0  0
 12  7  1  0  0  0  0
 13 15  1  0  0  0  0
 13 11  1  0  0  0  0
 14 13  1  0  0  0  0
 15 16  2  0  0  0  0
 17 18  1  1  0  0  0
 17 19  1  0  0  0  0
 17 15  1  0  0  0  0
 20 19  1  0  0  0  0
 21 22  1  0  0  0  0
 22  1  1  6  0  0  0
 22 23  1  0  0  0  0
 23 24  1  0  0  0  0
 24 25  1  0  0  0  0
 25 26  1  0  0  0  0
 26 27  1  0  0  0  0
 26 29  1  0  0  0  0
 28 26  1  0  0  0  0
M  END
>  <MODEL>
8

>  <REMARK>
  Name = ZINC65419303
                            x       y       z     vdW  Elec       q    Type
                         _______ _______ _______ _____ _____    ______ ____

>  <TORSDO>
F 9

>  <minimizedAffinity>
-6.9354078997748676

$$$$
ZINC65419303
 OpenBabel10211215423D

 29 29  0  0  1  0  0  0  0  0999 V2000
   51.8910   51.9070   19.4350 N   0  0  0  0  0  0  0  0  0  0  0  0
   52.7600   51.9700   19.0080 H   0  0  0  0  0  0  0  0  0  0  0  0
   51.3700   52.9800   20.0640 C   0  0  0  0  0  0  0  0  0  0  0  0
   52.0560   54.1380   20.1000 N   0  0  0  0  0  0  0  0  0  0  0  0
   52.9560   54.1820   19.7390 H   0  0  0  0  0  0  0  0  0  0  0  0
   50.2820   52.9000   20.5990 O   0  0  0  0  0  0  0  0  0  0  0  0
   51.4710   55.2810   20.6580 C   0  0  0  0  0  0  0  0  0  0  0  0
   51.6790   55.5860   21.9970 C   0  0  0  0  0  0  0  0  0  0  0  0
   51.1010   56.7130   22.5490 C   0  0  0  0  0  0  0  0  0  0  0  0
   50.3150   57.5400   21.7710 C   0  0  0  0  0  0  0  0  0  0  0  0
   50.1040   57.2420   20.4310 C   0  0  0  0  0  0  0  0  0  0  0  0
   50.6870   56.1140   19.8720 C   0  0  0  0  0  0  0  0  0  0  0  0
   49.3060   58.0800   19.6440 N   0  0  0  0  0  0  0  0  0  0  0  0
   49.7090   58.8170   19.1580 H   0  0  0  0  0  0  0  0  0  0  0  0
   47.9790   57.8640   19.5610 C   0  0  0  0  0  0  0  0  0  0  0  0
   47.4870   56.8960   20.0990 O   0  0  0  0  0  0  0  0  0  0  0  0
   47.1050   58.8280   18.7990 C   0  0  1  0  0  0  0  0  0  0  0  0
   47.1440   60.1990   19.4780 C   0  0  0  0  0  0  0  0  0  0  0  0
   47.5820   58.9460   17.4570 O   0  0  0  0  0  0  0  0  0  0  0  0
   47.2590   57.8310   16.6250 C   0  0  0  0  0  0  0  0  0  0  0  0
   52.0740   49.4930   19.7820 C   0  0  0  0  0  0  0  0  0  0  0  0
   51.1460   50.6470   19.3950 C   0  0  2  0  0  0  0  0  0  0  0  0
   50.6080   50.4160   17.9820 C   0  0  0  0  0  0  0  0  0  0  0  0
   49.2540   50.8670   17.9080 O   0  0  0  0  0  0  0  0  0  0  0  0
   49.1020   52.1510   17.3000 C   0  0  0  0  0  0  0  0  0  0  0  0
   47.8320   52.1630   16.4470 C   0  0  0  0  0  0  0  0  0  0  0  0
   46.7360   51.7970   17.2380 F   0  0  0  0  0  0  0  0  0  0  0  0
   47.9690   51.2520   15.3930 F   0  0  0  0  0  0  0  0  0  0  0  0
   47.6270   53.4470   15.9320 F   0  0  0  0  0  0  0  0  0  0  0  0
  1  3  1  0  0  0  0
  2  1  1  0  0  0  0
  3  4  1  0  0  0  0
  3  6  2  0  0  0  0
  4  7  1  0  0  0  0
  5  4  1  0  0  0  0
  7  8  2  0  0  0  0
  8  9  1  0  0  0  0
 10  9  2  0  0  0  0
 11 10  1  0  0  0  0
 12 11  2  0  0  0  0
 12  7  1  0  0  0  0
 13 11  1  0  0  0  0
 14 13  1  0  0  0  0
 15 13  1  0  0  0  0
 15 16  2  0  0  0  0
 17 19  1  1  0  0  0
 17 18  1  0  0  0  0
 17 15  1  0  0  0  0
 20 19  1  0  0  0  0
 22 23  1  6  0  0  0
 22  1  1  0  0  0  0
 22 21  1  0  0  0  0
 24 23  1  0  0  0  0
 25 24  1  0  0  0  0
 26 27  1  0  0  0  0
 26 25  1  0  0  0  0
 28 26  1  0  0  0  0
 29 26  1  0  0  0  0
M  END
>  <MODEL>
9

>  <REMARK>
  Name = ZINC65419303
                            x       y       z     vdW  Elec       q    Type
                         _______ _______ _______ _____ _____    ______ ____

>  <TORSDO>
F 9

>  <minimizedAffinity>
-6.774585367022647

$$$$
ZINC45027189
 OpenBabel10211215433D

 23 24  0  0  0  0  0  0  0  0999 V2000
   50.6340   51.8600   17.7220 N   0  0  0  0  0  0  0  0  0  0  0  0
   51.3090   51.6750   17.0510 H   0  0  0  0  0  0  0  0  0  0  0  0
   50.8700   52.7810   18.6790 C   0  0  0  0  0  0  0  0  0  0  0  0
   51.9970   53.5200   18.6400 N   0  0  0  0  0  0  0  0  0  0  0  0
   52.6370   53.3890   17.9250 H   0  0  0  0  0  0  0  0  0  0  0  0
   50.0660   52.9440   19.5750 O   0  0  0  0  0  0  0  0  0  0  0  0
   48.0980   49.2790   18.3410 C   0  0  0  0  0  0  0  0  0  0  0  0
   49.2950   49.9590   18.3630 C   0  0  0  0  0  0  0  0  0  0  0  0
   49.4200   51.1750   17.6980 C   0  0  0  0  0  0  0  0  0  0  0  0
   48.3350   51.7080   17.0090 C   0  0  0  0  0  0  0  0  0  0  0  0
   47.1350   51.0340   16.9830 C   0  0  0  0  0  0  0  0  0  0  0  0
   47.0060   49.8120   17.6500 C   0  0  0  0  0  0  0  0  0  0  0  0
   45.7600   49.1080   17.6240 C   0  0  0  0  0  0  0  0  0  0  0  0
   44.7700   48.5490   17.6040 N   0  0  0  0  0  0  0  0  0  0  0  0
   52.2520   54.5200   19.6790 C   0  0  0  0  0  0  0  0  0  0  0  0
   51.7540   55.8860   19.2050 C   0  0  0  0  0  0  0  0  0  0  0  0
   50.4050   56.1210   19.7270 N   0  0  0  0  0  0  0  0  0  0  0  0
   49.6600   55.5900   19.4040 H   0  0  0  0  0  0  0  0  0  0  0  0
   50.1980   57.0750   20.6560 C   0  0  0  0  0  0  0  0  0  0  0  0
   51.1290   57.7400   21.0600 O   0  0  0  0  0  0  0  0  0  0  0  0
   48.8110   57.3170   21.1920 C   0  0  0  0  0  0  0  0  0  0  0  0
   47.6300   56.9660   20.2840 C   0  0  0  0  0  0  0  0  0  0  0  0
   47.9860   58.4320   20.5430 C   0  0  0  0  0  0  0  0  0  0  0  0
  1  3  1  0  0  0  0
  2  1  1  0  0  0  0
  3  6  2  0  0  0  0
  4  3  1  0  0  0  0
  4 15  1  0  0  0  0
  5  4  1  0  0  0  0
  7  8  1  0  0  0  0
  9  1  1  0  0  0  0
  9  8  2  0  0  0  0
 10  9  1  0  0  0  0
 11 10  2  0  0  0  0
 11 12  1  0  0  0  0
 12  7  2  0  0  0  0
 13 12  1  0  0  0  0
 14 13  3  0  0  0  0
 16 15  1  0  0  0  0
 16 17  1  0  0  0  0
 17 19  1  0  0  0  0
 18 17  1  0  0  0  0
 19 20  2  0  0  0  0
 19 21  1  0  0  0  0
 22 23  1  0  0  0  0
 22 21  1  0  0  0  0
 23 21  1  0  0  0  0
M  END
>  <MODEL>
1

>  <REMARK>
  Name = ZINC45027189
                            x       y       z     vdW  Elec       q    Type
                         _______ _______ _______ _____ _____    ______ ____

>  <TORSDO>
F 6

>  <minimizedAffinity>
-7.4666364013452942

$$$$
ZINC45027189
 OpenBabel10211215433D

 23 24  0  0  0  0  0  0  0  0999 V2000
   49.4760   48.5920   18.5300 N   0  0  0  0  0  0  0  0  0  0  0  0
   49.8510   47.8860   19.0780 H   0  0  0  0  0  0  0  0  0  0  0  0
   50.1120   49.7760   18.4260 C   0  0  0  0  0  0  0  0  0  0  0  0
   51.3210   49.9430   18.9980 N   0  0  0  0  0  0  0  0  0  0  0  0
   51.7330   49.2110   19.4820 H   0  0  0  0  0  0  0  0  0  0  0  0
   49.5950   50.6930   17.8190 O   0  0  0  0  0  0  0  0  0  0  0  0
   47.1140   47.6340   15.8880 C   0  0  0  0  0  0  0  0  0  0  0  0
   48.2950   47.8420   16.5640 C   0  0  0  0  0  0  0  0  0  0  0  0
   48.2770   48.3820   17.8470 C   0  0  0  0  0  0  0  0  0  0  0  0
   47.0680   48.7120   18.4490 C   0  0  0  0  0  0  0  0  0  0  0  0
   45.8830   48.5070   17.7780 C   0  0  0  0  0  0  0  0  0  0  0  0
   45.8970   47.9650   16.4900 C   0  0  0  0  0  0  0  0  0  0  0  0
   44.6670   47.7500   15.7890 C   0  0  0  0  0  0  0  0  0  0  0  0
   43.6910   47.5790   15.2320 N   0  0  0  0  0  0  0  0  0  0  0  0
   52.0130   51.2290   18.8860 C   0  0  0  0  0  0  0  0  0  0  0  0
   52.5560   51.6370   20.2570 C   0  0  0  0  0  0  0  0  0  0  0  0
   52.2540   53.0500   20.5010 N   0  0  0  0  0  0  0  0  0  0  0  0
   52.7500   53.7400   20.0320 H   0  0  0  0  0  0  0  0  0  0  0  0
   51.2890   53.3910   21.3770 C   0  0  0  0  0  0  0  0  0  0  0  0
   50.6700   52.5290   21.9630 O   0  0  0  0  0  0  0  0  0  0  0  0
   50.9780   54.8440   21.6280 C   0  0  0  0  0  0  0  0  0  0  0  0
   52.0840   55.8630   21.3420 C   0  0  0  0  0  0  0  0  0  0  0  0
   51.7040   55.5320   22.7870 C   0  0  0  0  0  0  0  0  0  0  0  0
  1  2  1  0  0  0  0
  3  1  1  0  0  0  0
  3  4  1  0  0  0  0
  4  5  1  0  0  0  0
  6  3  2  0  0  0  0
  7 12  2  0  0  0  0
  7  8  1  0  0  0  0
  8  9  2  0  0  0  0
  9 10  1  0  0  0  0
  9  1  1  0  0  0  0
 11 10  2  0  0  0  0
 12 11  1  0  0  0  0
 13 12  1  0  0  0  0
 14 13  3  0  0  0  0
 15  4  1  0  0  0  0
 15 16  1  0  0  0  0
 16 17  1  0  0  0  0
 17 19  1  0  0  0  0
 18 17  1  0  0  0  0
 19 21  1  0  0  0  0
 19 20  2  0  0  0  0
 21 23  1  0  0  0  0
 22 21  1  0  0  0  0
 22 23  1  0  0  0  0
M  END
>  <MODEL>
2

>  <REMARK>
  Name = ZINC45027189
                            x       y       z     vdW  Elec       q    Type
                         _______ _______ _______ _____ _____    ______ ____

>  <TORSDO>
F 6

>  <minimizedAffinity>
-7.0036499973738042

$$$$
ZINC45027189
 OpenBabel10211215433D

 23 24  0  0  0  0  0  0  0  0999 V2000
   50.5200   50.2430   17.9440 N   0  0  0  0  0  0  0  0  0  0  0  0
   51.2520   49.6480   17.7200 H   0  0  0  0  0  0  0  0  0  0  0  0
   50.7740   51.5050   18.3430 C   0  0  0  0  0  0  0  0  0  0  0  0
   52.0380   51.9740   18.3310 N   0  0  0  0  0  0  0  0  0  0  0  0
   52.7630   51.4040   18.0350 H   0  0  0  0  0  0  0  0  0  0  0  0
   49.8640   52.2190   18.7150 O   0  0  0  0  0  0  0  0  0  0  0  0
   47.1410   49.6600   16.6310 C   0  0  0  0  0  0  0  0  0  0  0  0
   48.4410   50.1030   16.7270 C   0  0  0  0  0  0  0  0  0  0  0  0
   49.2020   49.7930   17.8500 C   0  0  0  0  0  0  0  0  0  0  0  0
   48.6530   49.0350   18.8780 C   0  0  0  0  0  0  0  0  0  0  0  0
   47.3530   48.5890   18.7890 C   0  0  0  0  0  0  0  0  0  0  0  0
   46.5860   48.8980   17.6630 C   0  0  0  0  0  0  0  0  0  0  0  0
   45.2340   48.4370   17.5670 C   0  0  0  0  0  0  0  0  0  0  0  0
   44.1610   48.0710   17.4910 N   0  0  0  0  0  0  0  0  0  0  0  0
   52.3140   53.3450   18.7660 C   0  0  0  0  0  0  0  0  0  0  0  0
   52.1920   53.4310   20.2890 C   0  0  0  0  0  0  0  0  0  0  0  0
   51.1030   54.3460   20.6400 N   0  0  0  0  0  0  0  0  0  0  0  0
   50.1810   54.0820   20.4970 H   0  0  0  0  0  0  0  0  0  0  0  0
   51.3830   55.5560   21.1630 C   0  0  0  0  0  0  0  0  0  0  0  0
   52.5360   55.8880   21.3430 O   0  0  0  0  0  0  0  0  0  0  0  0
   50.2630   56.4990   21.5250 C   0  0  0  0  0  0  0  0  0  0  0  0
   48.9820   56.4280   20.6900 C   0  0  0  0  0  0  0  0  0  0  0  0
   49.9320   57.6170   20.5330 C   0  0  0  0  0  0  0  0  0  0  0  0
  1  3  1  0  0  0  0
  2  1  1  0  0  0  0
  3  6  2  0  0  0  0
  4  3  1  0  0  0  0
  4 15  1  0  0  0  0
  5  4  1  0  0  0  0
  7  8  2  0  0  0  0
  7 12  1  0  0  0  0
  8  9  1  0  0  0  0
  9  1  1  0  0  0  0
  9 10  2  0  0  0  0
 11 10  1  0  0  0  0
 12 11  2  0  0  0  0
 13 12  1  0  0  0  0
 14 13  3  0  0  0  0
 15 16  1  0  0  0  0
 16 17  1  0  0  0  0
 17 19  1  0  0  0  0
 18 17  1  0  0  0  0
 19 20  2  0  0  0  0
 19 21  1  0  0  0  0
 22 21  1  0  0  0  0
 23 22  1  0  0  0  0
 23 21  1  0  0  0  0
M  END
>  <MODEL>
3

>  <REMARK>
  Name = ZINC45027189
                            x       y       z     vdW  Elec       q    Type
                         _______ _______ _______ _____ _____    ______ ____

>  <TORSDO>
F 6

>  <minimizedAffinity>
-6.9173209068576629

$$$$
ZINC45027189
 OpenBabel10211215433D

 23 24  0  0  0  0  0  0  0  0999 V2000
   49.3350   51.3070   16.4700 N   0  0  0  0  0  0  0  0  0  0  0  0
   49.4460   52.0580   15.8670 H   0  0  0  0  0  0  0  0  0  0  0  0
   50.2610   51.0600   17.4180 C   0  0  0  0  0  0  0  0  0  0  0  0
   51.2860   51.9170   17.5960 N   0  0  0  0  0  0  0  0  0  0  0  0
   51.3570   52.7100   17.0440 H   0  0  0  0  0  0  0  0  0  0  0  0
   50.1730   50.0650   18.1100 O   0  0  0  0  0  0  0  0  0  0  0  0
   46.0730   49.7760   17.1740 C   0  0  0  0  0  0  0  0  0  0  0  0
   47.1800   50.5880   17.2820 C   0  0  0  0  0  0  0  0  0  0  0  0
   48.2150   50.4820   16.3580 C   0  0  0  0  0  0  0  0  0  0  0  0
   48.1350   49.5570   15.3230 C   0  0  0  0  0  0  0  0  0  0  0  0
   47.0320   48.7410   15.2090 C   0  0  0  0  0  0  0  0  0  0  0  0
   45.9900   48.8440   16.1350 C   0  0  0  0  0  0  0  0  0  0  0  0
   44.8410   47.9980   16.0210 C   0  0  0  0  0  0  0  0  0  0  0  0
   43.9290   47.3250   15.9300 N   0  0  0  0  0  0  0  0  0  0  0  0
   52.2940   51.6490   18.6260 C   0  0  0  0  0  0  0  0  0  0  0  0
   53.0150   52.9500   18.9840 C   0  0  0  0  0  0  0  0  0  0  0  0
   52.4850   53.4700   20.2470 N   0  0  0  0  0  0  0  0  0  0  0  0
   52.8070   53.1170   21.0910 H   0  0  0  0  0  0  0  0  0  0  0  0
   51.5490   54.4390   20.2360 C   0  0  0  0  0  0  0  0  0  0  0  0
   51.1450   54.8810   19.1810 O   0  0  0  0  0  0  0  0  0  0  0  0
   51.0030   54.9750   21.5350 C   0  0  0  0  0  0  0  0  0  0  0  0
   50.4530   56.4020   21.5350 C   0  0  0  0  0  0  0  0  0  0  0  0
   51.7850   56.0960   22.2220 C   0  0  0  0  0  0  0  0  0  0  0  0
  1  3  1  0  0  0  0
  2  1  1  0  0  0  0
  3  4  1  0  0  0  0
  3  6  2  0  0  0  0
  4 15  1  0  0  0  0
  5  4  1  0  0  0  0
  7  8  1  0  0  0  0
  9  1  1  0  0  0  0
  9  8  2  0  0  0  0
 10  9  1  0  0  0  0
 11 10  2  0  0  0  0
 11 12  1  0  0  0  0
 12  7  2  0  0  0  0
 13 12  1  0  0  0  0
 14 13  3  0  0  0  0
 15 16  1  0  0  0  0
 16 17  1  0  0  0  0
 17 18  1  0  0  0  0
 19 17  1  0  0  0  0
 19 21  1  0  0  0  0
 20 19  2  0  0  0  0
 21 22  1  0  0  0  0
 21 23  1  0  0  0  0
 22 23  1  0  0  0  0
M  END
>  <MODEL>
4

>  <REMARK>
  Name = ZINC45027189
                            x       y       z     vdW  Elec       q    Type
                         _______ _______ _______ _____ _____    ______ ____

>  <TORSDO>
F 6

>  <minimizedAffinity>
-6.8282105374866413

$$$$
ZINC45027189
 OpenBabel10211215433D

 23 24  0  0  0  0  0  0  0  0999 V2000
   51.6670   52.5390   20.0350 N   0  0  0  0  0  0  0  0  0  0  0  0
   52.5350   52.6800   19.6260 H   0  0  0  0  0  0  0  0  0  0  0  0
   51.2780   53.3060   21.0730 C   0  0  0  0  0  0  0  0  0  0  0  0
   52.0490   54.3350   21.4760 N   0  0  0  0  0  0  0  0  0  0  0  0
   52.8830   54.5240   21.0190 H   0  0  0  0  0  0  0  0  0  0  0  0
   50.2340   53.0680   21.6460 O   0  0  0  0  0  0  0  0  0  0  0  0
   49.1050   50.8510   18.0190 C   0  0  0  0  0  0  0  0  0  0  0  0
   49.9430   51.8300   18.5040 C   0  0  0  0  0  0  0  0  0  0  0  0
   50.8190   51.5450   19.5460 C   0  0  0  0  0  0  0  0  0  0  0  0
   50.8530   50.2700   20.1010 C   0  0  0  0  0  0  0  0  0  0  0  0
   50.0170   49.2860   19.6220 C   0  0  0  0  0  0  0  0  0  0  0  0
   49.1360   49.5690   18.5750 C   0  0  0  0  0  0  0  0  0  0  0  0
   48.2650   48.5490   18.0740 C   0  0  0  0  0  0  0  0  0  0  0  0
   47.5740   47.7380   17.6760 N   0  0  0  0  0  0  0  0  0  0  0  0
   51.6270   55.1680   22.6050 C   0  0  0  0  0  0  0  0  0  0  0  0
   51.4260   56.6080   22.1290 C   0  0  0  0  0  0  0  0  0  0  0  0
   50.0110   56.8260   21.8190 N   0  0  0  0  0  0  0  0  0  0  0  0
   49.3900   57.0610   22.5250 H   0  0  0  0  0  0  0  0  0  0  0  0
   49.5720   56.6990   20.5510 C   0  0  0  0  0  0  0  0  0  0  0  0
   50.3490   56.4040   19.6670 O   0  0  0  0  0  0  0  0  0  0  0  0
   48.1170   56.9230   20.2310 C   0  0  0  0  0  0  0  0  0  0  0  0
   47.7850   57.7180   18.9660 C   0  0  0  0  0  0  0  0  0  0  0  0
   47.5790   58.3520   20.3440 C   0  0  0  0  0  0  0  0  0  0  0  0
  1  3  1  0  0  0  0
  2  1  1  0  0  0  0
  3  4  1  0  0  0  0
  3  6  2  0  0  0  0
  4 15  1  0  0  0  0
  5  4  1  0  0  0  0
  7  8  2  0  0  0  0
  7 12  1  0  0  0  0
  8  9  1  0  0  0  0
  9  1  1  0  0  0  0
  9 10  2  0  0  0  0
 11 10  1  0  0  0  0
 12 11  2  0  0  0  0
 13 12  1  0  0  0  0
 14 13  3  0  0  0  0
 16 15  1  0  0  0  0
 17 16  1  0  0  0  0
 17 18  1  0  0  0  0
 19 17  1  0  0  0  0
 20 19  2  0  0  0  0
 21 23  1  0  0  0  0
 21 19  1  0  0  0  0
 22 21  1  0  0  0  0
 22 23  1  0  0  0  0
M  END
>  <MODEL>
5

>  <REMARK>
  Name = ZINC45027189
                            x       y       z     vdW  Elec       q    Type
                         _______ _______ _______ _____ _____    ______ ____

>  <TORSDO>
F 6

>  <minimizedAffinity>
-6.8175057024129684

$$$$
ZINC45027189
 OpenBabel10211215433D

 23 24  0  0  0  0  0  0  0  0999 V2000
   51.0390   53.9430   21.3990 N   0  0  0  0  0  0  0  0  0  0  0  0
   51.1460   53.6990   22.3310 H   0  0  0  0  0  0  0  0  0  0  0  0
   51.6360   53.2130   20.4370 C   0  0  0  0  0  0  0  0  0  0  0  0
   52.2950   52.0820   20.7610 N   0  0  0  0  0  0  0  0  0  0  0  0
   52.3380   51.7940   21.6850 H   0  0  0  0  0  0  0  0  0  0  0  0
   51.5820   53.5740   19.2780 O   0  0  0  0  0  0  0  0  0  0  0  0
   49.8230   57.4030   21.2210 C   0  0  0  0  0  0  0  0  0  0  0  0
   50.5860   56.3070   21.5590 C   0  0  0  0  0  0  0  0  0  0  0  0
   50.2640   55.0520   21.0540 C   0  0  0  0  0  0  0  0  0  0  0  0
   49.1730   54.8990   20.2050 C   0  0  0  0  0  0  0  0  0  0  0  0
   48.4060   55.9900   19.8620 C   0  0  0  0  0  0  0  0  0  0  0  0
   48.7260   57.2530   20.3680 C   0  0  0  0  0  0  0  0  0  0  0  0
   47.9310   58.3900   20.0150 C   0  0  0  0  0  0  0  0  0  0  0  0
   47.3000   59.2930   19.7340 N   0  0  0  0  0  0  0  0  0  0  0  0
   52.9450   51.2880   19.7150 C   0  0  0  0  0  0  0  0  0  0  0  0
   52.3280   49.8890   19.6800 C   0  0  0  0  0  0  0  0  0  0  0  0
   51.1620   49.8910   18.7930 N   0  0  0  0  0  0  0  0  0  0  0  0
   51.2390   50.2400   17.8910 H   0  0  0  0  0  0  0  0  0  0  0  0
   49.9810   49.4110   19.2310 C   0  0  0  0  0  0  0  0  0  0  0  0
   49.8840   48.9760   20.3590 O   0  0  0  0  0  0  0  0  0  0  0  0
   48.7810   49.4140   18.3190 C   0  0  0  0  0  0  0  0  0  0  0  0
   47.5310   48.6710   18.7940 C   0  0  0  0  0  0  0  0  0  0  0  0
   48.3850   48.0870   17.6660 C   0  0  0  0  0  0  0  0  0  0  0  0
  1  2  1  0  0  0  0
  3  4  1  0  0  0  0
  3  1  1  0  0  0  0
  4  5  1  0  0  0  0
  6  3  2  0  0  0  0
  7  8  1  0  0  0  0
  9  1  1  0  0  0  0
  9  8  2  0  0  0  0
 10  9  1  0  0  0  0
 11 10  2  0  0  0  0
 11 12  1  0  0  0  0
 12  7  2  0  0  0  0
 13 12  1  0  0  0  0
 14 13  3  0  0  0  0
 15  4  1  0  0  0  0
 16 15  1  0  0  0  0
 17 19  1  0  0  0  0
 17 16  1  0  0  0  0
 18 17  1  0  0  0  0
 19 20  2  0  0  0  0
 21 22  1  0  0  0  0
 21 19  1  0  0  0  0
 23 21  1  0  0  0  0
 23 22  1  0  0  0  0
M  END
>  <MODEL>
6

>  <REMARK>
  Name = ZINC45027189
                            x       y       z     vdW  Elec       q    Type
                         _______ _______ _______ _____ _____    ______ ____

>  <TORSDO>
F 6

>  <minimizedAffinity>
-6.805743156778969

$$$$
ZINC45027189
 OpenBabel10211215433D

 23 24  0  0  0  0  0  0  0  0999 V2000
   48.4000   50.0550   17.4610 N   0  0  0  0  0  0  0  0  0  0  0  0
   49.1290   49.5290   17.8250 H   0  0  0  0  0  0  0  0  0  0  0  0
   48.4490   51.4010   17.5110 C   0  0  0  0  0  0  0  0  0  0  0  0
   49.5560   52.0190   17.9680 N   0  0  0  0  0  0  0  0  0  0  0  0
   50.3170   51.4950   18.2620 H   0  0  0  0  0  0  0  0  0  0  0  0
   47.4940   52.0580   17.1440 O   0  0  0  0  0  0  0  0  0  0  0  0
   46.2780   48.3610   14.9910 C   0  0  0  0  0  0  0  0  0  0  0  0
   47.3610   48.9910   15.5620 C   0  0  0  0  0  0  0  0  0  0  0  0
   47.3010   49.4170   16.8850 C   0  0  0  0  0  0  0  0  0  0  0  0
   46.1480   49.2090   17.6350 C   0  0  0  0  0  0  0  0  0  0  0  0
   45.0610   48.5800   17.0700 C   0  0  0  0  0  0  0  0  0  0  0  0
   45.1170   48.1500   15.7410 C   0  0  0  0  0  0  0  0  0  0  0  0
   43.9900   47.4960   15.1500 C   0  0  0  0  0  0  0  0  0  0  0  0
   43.0940   46.9770   14.6810 N   0  0  0  0  0  0  0  0  0  0  0  0
   49.6090   53.4820   18.0230 C   0  0  0  0  0  0  0  0  0  0  0  0
   49.4260   53.9450   19.4690 C   0  0  0  0  0  0  0  0  0  0  0  0
   49.0200   55.3530   19.4840 N   0  0  0  0  0  0  0  0  0  0  0  0
   48.4010   55.6860   18.8150 H   0  0  0  0  0  0  0  0  0  0  0  0
   49.5080   56.1850   20.4250 C   0  0  0  0  0  0  0  0  0  0  0  0
   50.2820   55.7680   21.2600 O   0  0  0  0  0  0  0  0  0  0  0  0
   49.0910   57.6330   20.4390 C   0  0  0  0  0  0  0  0  0  0  0  0
   48.7870   58.2680   21.7990 C   0  0  0  0  0  0  0  0  0  0  0  0
   47.6450   57.9490   20.8310 C   0  0  0  0  0  0  0  0  0  0  0  0
  1  3  1  0  0  0  0
  1  2  1  0  0  0  0
  3  4  1  0  0  0  0
  4 15  1  0  0  0  0
  4  5  1  0  0  0  0
  6  3  2  0  0  0  0
  7  8  2  0  0  0  0
  7 12  1  0  0  0  0
  8  9  1  0  0  0  0
  9  1  1  0  0  0  0
  9 10  2  0  0  0  0
 11 10  1  0  0  0  0
 12 11  2  0  0  0  0
 13 12  1  0  0  0  0
 14 13  3  0  0  0  0
 15 16  1  0  0  0  0
 16 17  1  0  0  0  0
 17 19  1  0  0  0  0
 18 17  1  0  0  0  0
 19 21  1  0  0  0  0
 19 20  2  0  0  0  0
 21 23  1  0  0  0  0
 21 22  1  0  0  0  0
 23 22  1  0  0  0  0
M  END
>  <MODEL>
7

>  <REMARK>
  Name = ZINC45027189
                            x       y       z     vdW  Elec       q    Type
                         _______ _______ _______ _____ _____    ______ ____

>  <TORSDO>
F 6

>  <minimizedAffinity>
-6.6697890281772239

$$$$
ZINC45027189
 OpenBabel10211215433D

 23 24  0  0  0  0  0  0  0  0999 V2000
   50.1940   53.5140   19.2180 N   0  0  0  0  0  0  0  0  0  0  0  0
   49.5290   53.5920   18.5170 H   0  0  0  0  0  0  0  0  0  0  0  0
   50.5670   52.2970   19.6630 C   0  0  0  0  0  0  0  0  0  0  0  0
   50.0960   51.1870   19.0610 N   0  0  0  0  0  0  0  0  0  0  0  0
   49.4890   51.2630   18.3090 H   0  0  0  0  0  0  0  0  0  0  0  0
   51.3270   52.2020   20.6060 O   0  0  0  0  0  0  0  0  0  0  0  0
   52.5610   56.2520   19.8350 C   0  0  0  0  0  0  0  0  0  0  0  0
   51.9940   55.1190   19.2970 C   0  0  0  0  0  0  0  0  0  0  0  0
   50.7660   54.6620   19.7670 C   0  0  0  0  0  0  0  0  0  0  0  0
   50.1080   55.3500   20.7810 C   0  0  0  0  0  0  0  0  0  0  0  0
   50.6690   56.4830   21.3240 C   0  0  0  0  0  0  0  0  0  0  0  0
   51.9020   56.9440   20.8550 C   0  0  0  0  0  0  0  0  0  0  0  0
   52.4890   58.1220   21.4180 C   0  0  0  0  0  0  0  0  0  0  0  0
   52.9560   59.0580   21.8650 N   0  0  0  0  0  0  0  0  0  0  0  0
   50.5010   49.8650   19.5450 C   0  0  0  0  0  0  0  0  0  0  0  0
   49.3270   48.8920   19.4130 C   0  0  0  0  0  0  0  0  0  0  0  0
   48.3590   49.4240   18.4510 N   0  0  0  0  0  0  0  0  0  0  0  0
   48.6120   50.1480   17.8570 H   0  0  0  0  0  0  0  0  0  0  0  0
   47.1160   48.9080   18.3910 C   0  0  0  0  0  0  0  0  0  0  0  0
   46.7980   48.0030   19.1330 O   0  0  0  0  0  0  0  0  0  0  0  0
   46.1190   49.4550   17.4010 C   0  0  0  0  0  0  0  0  0  0  0  0
   44.9210   48.5720   17.0430 C   0  0  0  0  0  0  0  0  0  0  0  0
   46.0460   48.7850   16.0270 C   0  0  0  0  0  0  0  0  0  0  0  0
  1  3  1  0  0  0  0
  1  9  1  0  0  0  0
  2  1  1  0  0  0  0
  3  6  2  0  0  0  0
  4 15  1  0  0  0  0
  4  3  1  0  0  0  0
  5  4  1  0  0  0  0
  7 12  2  0  0  0  0
  8  9  2  0  0  0  0
  8  7  1  0  0  0  0
  9 10  1  0  0  0  0
 10 11  2  0  0  0  0
 12 11  1  0  0  0  0
 12 13  1  0  0  0  0
 13 14  3  0  0  0  0
 16 15  1  0  0  0  0
 17 16  1  0  0  0  0
 18 17  1  0  0  0  0
 19 17  1  0  0  0  0
 19 20  2  0  0  0  0
 21 19  1  0  0  0  0
 22 21  1  0  0  0  0
 23 22  1  0  0  0  0
 23 21  1  0  0  0  0
M  END
>  <MODEL>
8

>  <REMARK>
  Name = ZINC45027189
                            x       y       z     vdW  Elec       q    Type
                         _______ _______ _______ _____ _____    ______ ____

>  <TORSDO>
F 6

>  <minimizedAffinity>
-6.5814577677659072

$$$$
ZINC45027189
 OpenBabel10211215433D

 23 24  0  0  0  0  0  0  0  0999 V2000
   49.3780   54.8140   20.4780 N   0  0  0  0  0  0  0  0  0  0  0  0
   48.9160   54.2350   21.1060 H   0  0  0  0  0  0  0  0  0  0  0  0
   50.5150   54.3970   19.8880 C   0  0  0  0  0  0  0  0  0  0  0  0
   50.9550   53.1380   20.0860 N   0  0  0  0  0  0  0  0  0  0  0  0
   50.4530   52.5330   20.6530 H   0  0  0  0  0  0  0  0  0  0  0  0
   51.1440   55.1560   19.1770 O   0  0  0  0  0  0  0  0  0  0  0  0
   47.8720   57.5980   18.6200 C   0  0  0  0  0  0  0  0  0  0  0  0
   48.3810   56.3530   18.9110 C   0  0  0  0  0  0  0  0  0  0  0  0
   48.8620   56.0770   20.1870 C   0  0  0  0  0  0  0  0  0  0  0  0
   48.8290   57.0570   21.1730 C   0  0  0  0  0  0  0  0  0  0  0  0
   48.3220   58.3060   20.8890 C   0  0  0  0  0  0  0  0  0  0  0  0
   47.8380   58.5860   19.6080 C   0  0  0  0  0  0  0  0  0  0  0  0
   47.3090   59.8830   19.3090 C   0  0  0  0  0  0  0  0  0  0  0  0
   46.8900   60.9120   19.0710 N   0  0  0  0  0  0  0  0  0  0  0  0
   52.1920   52.6860   19.4440 C   0  0  0  0  0  0  0  0  0  0  0  0
   51.8550   51.6790   18.3410 C   0  0  0  0  0  0  0  0  0  0  0  0
   50.6960   52.1560   17.5830 N   0  0  0  0  0  0  0  0  0  0  0  0
   50.6050   53.1000   17.3770 H   0  0  0  0  0  0  0  0  0  0  0  0
   49.7550   51.2840   17.1720 C   0  0  0  0  0  0  0  0  0  0  0  0
   49.8670   50.1040   17.4300 O   0  0  0  0  0  0  0  0  0  0  0  0
   48.5610   51.7740   16.3920 C   0  0  0  0  0  0  0  0  0  0  0  0
   48.0970   53.2110   16.6390 C   0  0  0  0  0  0  0  0  0  0  0  0
   47.2690   52.0380   17.1690 C   0  0  0  0  0  0  0  0  0  0  0  0
  1  2  1  0  0  0  0
  3  4  1  0  0  0  0
  3  1  1  0  0  0  0
  4  5  1  0  0  0  0
  6  3  2  0  0  0  0
  7  8  2  0  0  0  0
  7 12  1  0  0  0  0
  8  9  1  0  0  0  0
  9  1  1  0  0  0  0
  9 10  2  0  0  0  0
 11 10  1  0  0  0  0
 12 11  2  0  0  0  0
 13 12  1  0  0  0  0
 14 13  3  0  0  0  0
 15  4  1  0  0  0  0
 16 15  1  0  0  0  0
 17 16  1  0  0  0  0
 18 17  1  0  0  0  0
 19 20  2  0  0  0  0
 19 17  1  0  0  0  0
 21 22  1  0  0  0  0
 21 23  1  0  0  0  0
 21 19  1  0  0  0  0
 22 23  1  0  0  0  0
M  END
>  <MODEL>
9

>  <REMARK>
  Name = ZINC45027189
                            x       y       z     vdW  Elec       q    Type
                         _______ _______ _______ _____ _____    ______ ____

>  <TORSDO>
F 6

>  <minimizedAffinity>
-6.4813081431825745

$$$$
ZINC06801783
 OpenBabel10211215443D

 26 28  0  0  1  0  0  0  0  0999 V2000
   51.8210   55.9160   19.7460 C   0  0  1  0  0  0  0  0  0  0  0  0
   50.3910   56.3250   20.0370 C   0  0  0  0  0  0  0  0  0  0  0  0
   50.1890   57.3000   20.9480 C   0  0  0  0  0  0  0  0  0  0  0  0
   48.7830   57.7320   21.2700 C   0  0  0  0  0  0  0  0  0  0  0  0
   51.2380   57.9050   21.5790 N   0  0  0  0  0  0  0  0  0  0  0  0
   51.0450   58.6030   22.2230 H   0  0  0  0  0  0  0  0  0  0  0  0
   52.5200   57.5830   21.3610 C   0  0  0  0  0  0  0  0  0  0  0  0
   53.7410   58.4160   22.2250 S   0  0  0  0  0  0  0  0  0  0  0  0
   52.8810   56.6260   20.4830 N   0  0  0  0  0  0  0  0  0  0  0  0
   53.8150   56.4090   20.3410 H   0  0  0  0  0  0  0  0  0  0  0  0
   52.1970   51.7440   20.5890 C   0  0  0  0  0  0  0  0  0  0  0  0
   52.4480   52.2200   19.3100 C   0  0  0  0  0  0  0  0  0  0  0  0
   52.3260   53.5690   19.0400 C   0  0  0  0  0  0  0  0  0  0  0  0
   51.9540   54.4450   20.0440 C   0  0  0  0  0  0  0  0  0  0  0  0
   51.7080   53.9740   21.3200 C   0  0  0  0  0  0  0  0  0  0  0  0
   51.8240   52.6240   21.5940 C   0  0  0  0  0  0  0  0  0  0  0  0
   52.3160   50.4170   20.8570 O   0  0  0  0  0  0  0  0  0  0  0  0
   50.4170   49.1170   20.1200 C   0  0  0  0  0  0  0  0  0  0  0  0
   51.8710   49.5080   19.8480 C   0  0  0  0  0  0  0  0  0  0  0  0
   49.3030   55.7010   19.3780 C   0  0  0  0  0  0  0  0  0  0  0  0
   49.0590   55.9680   18.0800 N   0  0  0  0  0  0  0  0  0  0  0  0
   49.6700   56.5290   17.5770 H   0  0  0  0  0  0  0  0  0  0  0  0
   48.5870   54.9250   19.9850 O   0  0  0  0  0  0  0  0  0  0  0  0
   47.8730   55.4090   17.4270 C   0  0  0  0  0  0  0  0  0  0  0  0
   48.0590   54.1480   16.5820 C   0  0  0  0  0  0  0  0  0  0  0  0
   47.7980   55.4940   15.9020 C   0  0  0  0  0  0  0  0  0  0  0  0
  1  2  1  0  0  0  0
  1 14  1  1  0  0  0
  1  9  1  0  0  0  0
  2  3  2  0  0  0  0
  3  4  1  0  0  0  0
  3  5  1  0  0  0  0
  5  6  1  0  0  0  0
  7  5  1  0  0  0  0
  7  8  2  0  0  0  0
  9  7  1  0  0  0  0
 10  9  1  0  0  0  0
 11 17  1  0  0  0  0
 11 16  2  0  0  0  0
 12 11  1  0  0  0  0
 13 12  2  0  0  0  0
 13 14  1  0  0  0  0
 14 15  2  0  0  0  0
 15 16  1  0  0  0  0
 19 18  1  0  0  0  0
 19 17  1  0  0  0  0
 20 23  2  0  0  0  0
 20  2  1  0  0  0  0
 21 20  1  0  0  0  0
 22 21  1  0  0  0  0
 24 21  1  0  0  0  0
 25 24  1  0  0  0  0
 26 25  1  0  0  0  0
 26 24  1  0  0  0  0
M  END
>  <MODEL>
1

>  <REMARK>
  Name = ZINC06801783
                            x       y       z     vdW  Elec       q    Type
                         _______ _______ _______ _____ _____    ______ ____

>  <TORSDO>
F 5

>  <minimizedAffinity>
-7.2526018346388756

$$$$
ZINC06801783
 OpenBabel10211215443D

 26 28  0  0  1  0  0  0  0  0999 V2000
   45.6090   49.0890   17.0380 C   0  0  1  0  0  0  0  0  0  0  0  0
   45.7810   48.0030   15.9950 C   0  0  0  0  0  0  0  0  0  0  0  0
   45.4480   46.7410   16.3410 C   0  0  0  0  0  0  0  0  0  0  0  0
   45.6090   45.6320   15.3350 C   0  0  0  0  0  0  0  0  0  0  0  0
   44.9640   46.4550   17.5850 N   0  0  0  0  0  0  0  0  0  0  0  0
   44.7350   45.5350   17.7880 H   0  0  0  0  0  0  0  0  0  0  0  0
   44.7930   47.3740   18.5450 C   0  0  0  0  0  0  0  0  0  0  0  0
   44.1840   46.8780   20.0660 S   0  0  0  0  0  0  0  0  0  0  0  0
   45.0850   48.6760   18.3520 N   0  0  0  0  0  0  0  0  0  0  0  0
   44.9530   49.3240   19.0610 H   0  0  0  0  0  0  0  0  0  0  0  0
   49.4140   50.9310   17.6620 C   0  0  0  0  0  0  0  0  0  0  0  0
   49.1900   49.6330   18.0980 C   0  0  0  0  0  0  0  0  0  0  0  0
   47.9600   49.0400   17.8950 C   0  0  0  0  0  0  0  0  0  0  0  0
   46.9510   49.7390   17.2580 C   0  0  0  0  0  0  0  0  0  0  0  0
   47.1730   51.0310   16.8180 C   0  0  0  0  0  0  0  0  0  0  0  0
   48.4000   51.6300   17.0230 C   0  0  0  0  0  0  0  0  0  0  0  0
   50.6240   51.5180   17.8610 O   0  0  0  0  0  0  0  0  0  0  0  0
   50.4970   52.7120   19.9580 C   0  0  0  0  0  0  0  0  0  0  0  0
   50.6240   52.8250   18.4370 C   0  0  0  0  0  0  0  0  0  0  0  0
   46.2770   48.3020   14.7030 C   0  0  0  0  0  0  0  0  0  0  0  0
   45.4200   48.5020   13.6820 N   0  0  0  0  0  0  0  0  0  0  0  0
   44.4650   48.5120   13.8460 H   0  0  0  0  0  0  0  0  0  0  0  0
   47.4770   48.3770   14.5140 O   0  0  0  0  0  0  0  0  0  0  0  0
   45.9330   48.7020   12.3240 C   0  0  0  0  0  0  0  0  0  0  0  0
   44.9220   49.0600   11.2330 C   0  0  0  0  0  0  0  0  0  0  0  0
   45.5540   47.6660   11.2640 C   0  0  0  0  0  0  0  0  0  0  0  0
  1 14  1  1  0  0  0
  1  9  1  0  0  0  0
  2  3  2  0  0  0  0
  2  1  1  0  0  0  0
  3  5  1  0  0  0  0
  4  3  1  0  0  0  0
  5  6  1  0  0  0  0
  5  7  1  0  0  0  0
  7  8  2  0  0  0  0
  9  7  1  0  0  0  0
  9 10  1  0  0  0  0
 11 17  1  0  0  0  0
 11 12  2  0  0  0  0
 13 12  1  0  0  0  0
 14 13  2  0  0  0  0
 15 16  2  0  0  0  0
 15 14  1  0  0  0  0
 16 11  1  0  0  0  0
 17 19  1  0  0  0  0
 19 18  1  0  0  0  0
 20  2  1  0  0  0  0
 21 22  1  0  0  0  0
 21 20  1  0  0  0  0
 23 20  2  0  0  0  0
 24 21  1  0  0  0  0
 25 26  1  0  0  0  0
 25 24  1  0  0  0  0
 26 24  1  0  0  0  0
M  END
>  <MODEL>
2

>  <REMARK>
  Name = ZINC06801783
                            x       y       z     vdW  Elec       q    Type
                         _______ _______ _______ _____ _____    ______ ____

>  <TORSDO>
F 5

>  <minimizedAffinity>
-7.0109940244594675

$$$$
ZINC06801783
 OpenBabel10211215443D

 26 28  0  0  1  0  0  0  0  0999 V2000
   50.3950   50.3840   17.6700 C   0  0  1  0  0  0  0  0  0  0  0  0
   49.1940   50.1360   16.7790 C   0  0  0  0  0  0  0  0  0  0  0  0
   49.4130   50.0010   15.4530 C   0  0  0  0  0  0  0  0  0  0  0  0
   48.2460   49.7590   14.5320 C   0  0  0  0  0  0  0  0  0  0  0  0
   50.6740   50.0770   14.9350 N   0  0  0  0  0  0  0  0  0  0  0  0
   50.7830   49.9710   13.9770 H   0  0  0  0  0  0  0  0  0  0  0  0
   51.7690   50.2950   15.6750 C   0  0  0  0  0  0  0  0  0  0  0  0
   53.2920   50.3750   14.8960 S   0  0  0  0  0  0  0  0  0  0  0  0
   51.7110   50.4540   17.0120 N   0  0  0  0  0  0  0  0  0  0  0  0
   52.5170   50.6110   17.5280 H   0  0  0  0  0  0  0  0  0  0  0  0
   49.7600   54.0690   19.7400 C   0  0  0  0  0  0  0  0  0  0  0  0
   50.2780   52.9730   20.4140 C   0  0  0  0  0  0  0  0  0  0  0  0
   50.4830   51.7830   19.7430 C   0  0  0  0  0  0  0  0  0  0  0  0
   50.1710   51.6840   18.3990 C   0  0  0  0  0  0  0  0  0  0  0  0
   49.6600   52.7760   17.7230 C   0  0  0  0  0  0  0  0  0  0  0  0
   49.4480   53.9670   18.3920 C   0  0  0  0  0  0  0  0  0  0  0  0
   49.5570   55.2400   20.3980 O   0  0  0  0  0  0  0  0  0  0  0  0
   48.3860   57.3120   20.8170 C   0  0  0  0  0  0  0  0  0  0  0  0
   48.5210   56.0910   19.9050 C   0  0  0  0  0  0  0  0  0  0  0  0
   47.8880   50.0520   17.3180 C   0  0  0  0  0  0  0  0  0  0  0  0
   47.4790   48.9180   17.9210 N   0  0  0  0  0  0  0  0  0  0  0  0
   48.1020   48.1860   18.0510 H   0  0  0  0  0  0  0  0  0  0  0  0
   47.1320   51.0030   17.2350 O   0  0  0  0  0  0  0  0  0  0  0  0
   46.0950   48.7910   18.3820 C   0  0  0  0  0  0  0  0  0  0  0  0
   45.5280   47.3780   18.5330 C   0  0  0  0  0  0  0  0  0  0  0  0
   45.0610   48.2710   17.3810 C   0  0  0  0  0  0  0  0  0  0  0  0
  1 14  1  6  0  0  0
  2 20  1  0  0  0  0
  2  1  1  0  0  0  0
  3  2  2  0  0  0  0
  4  3  1  0  0  0  0
  5  3  1  0  0  0  0
  5  7  1  0  0  0  0
  6  5  1  0  0  0  0
  7  9  1  0  0  0  0
  8  7  2  0  0  0  0
  9 10  1  0  0  0  0
  9  1  1  0  0  0  0
 11 17  1  0  0  0  0
 11 12  2  0  0  0  0
 13 12  1  0  0  0  0
 14 13  2  0  0  0  0
 15 16  2  0  0  0  0
 15 14  1  0  0  0  0
 16 11  1  0  0  0  0
 19 17  1  0  0  0  0
 19 18  1  0  0  0  0
 20 21  1  0  0  0  0
 21 22  1  0  0  0  0
 21 24  1  0  0  0  0
 23 20  2  0  0  0  0
 24 25  1  0  0  0  0
 26 24  1  0  0  0  0
 26 25  1  0  0  0  0
M  END
>  <MODEL>
3

>  <REMARK>
  Name = ZINC06801783
                            x       y       z     vdW  Elec       q    Type
                         _______ _______ _______ _____ _____    ______ ____

>  <TORSDO>
F 5

>  <minimizedAffinity>
-6.9137698204756868

$$$$
ZINC06801783
 OpenBabel10211215443D

 26 28  0  0  1  0  0  0  0  0999 V2000
   50.0150   51.3860   17.0230 C   0  0  1  0  0  0  0  0  0  0  0  0
   50.7040   52.1630   18.1270 C   0  0  0  0  0  0  0  0  0  0  0  0
   52.0520   52.1060   18.1890 C   0  0  0  0  0  0  0  0  0  0  0  0
   52.7750   52.8590   19.2730 C   0  0  0  0  0  0  0  0  0  0  0  0
   52.7690   51.3790   17.2820 N   0  0  0  0  0  0  0  0  0  0  0  0
   53.7350   51.3700   17.3640 H   0  0  0  0  0  0  0  0  0  0  0  0
   52.2120   50.6730   16.2890 C   0  0  0  0  0  0  0  0  0  0  0  0
   53.2290   49.7990   15.2240 S   0  0  0  0  0  0  0  0  0  0  0  0
   50.8780   50.6290   16.1000 N   0  0  0  0  0  0  0  0  0  0  0  0
   50.4960   50.1120   15.3740 H   0  0  0  0  0  0  0  0  0  0  0  0
   47.3060   48.6300   18.8470 C   0  0  0  0  0  0  0  0  0  0  0  0
   46.8450   49.5350   17.9020 C   0  0  0  0  0  0  0  0  0  0  0  0
   47.7230   50.4240   17.3140 C   0  0  0  0  0  0  0  0  0  0  0  0
   49.0600   50.4130   17.6670 C   0  0  0  0  0  0  0  0  0  0  0  0
   49.5220   49.5090   18.6040 C   0  0  0  0  0  0  0  0  0  0  0  0
   48.6470   48.6200   19.1990 C   0  0  0  0  0  0  0  0  0  0  0  0
   46.4440   47.7530   19.4280 O   0  0  0  0  0  0  0  0  0  0  0  0
   44.2140   46.8970   19.7980 C   0  0  0  0  0  0  0  0  0  0  0  0
   45.1540   47.6190   18.8290 C   0  0  0  0  0  0  0  0  0  0  0  0
   49.9590   52.9210   19.0630 C   0  0  0  0  0  0  0  0  0  0  0  0
   49.2950   54.0230   18.6620 N   0  0  0  0  0  0  0  0  0  0  0  0
   49.2660   54.2560   17.7210 H   0  0  0  0  0  0  0  0  0  0  0  0
   49.9200   52.5780   20.2310 O   0  0  0  0  0  0  0  0  0  0  0  0
   48.6150   54.8670   19.6470 C   0  0  0  0  0  0  0  0  0  0  0  0
   48.4050   56.3400   19.2890 C   0  0  0  0  0  0  0  0  0  0  0  0
   49.4430   55.9490   20.3430 C   0  0  0  0  0  0  0  0  0  0  0  0
  1 14  1  1  0  0  0
  1  2  1  0  0  0  0
  2  3  2  0  0  0  0
  2 20  1  0  0  0  0
  3  4  1  0  0  0  0
  5  6  1  0  0  0  0
  5  3  1  0  0  0  0
  7  5  1  0  0  0  0
  8  7  2  0  0  0  0
  9  7  1  0  0  0  0
  9  1  1  0  0  0  0
 10  9  1  0  0  0  0
 11 16  1  0  0  0  0
 11 17  1  0  0  0  0
 12 11  2  0  0  0  0
 13 14  2  0  0  0  0
 13 12  1  0  0  0  0
 14 15  1  0  0  0  0
 15 16  2  0  0  0  0
 19 17  1  0  0  0  0
 19 18  1  0  0  0  0
 20 23  2  0  0  0  0
 21 20  1  0  0  0  0
 21 24  1  0  0  0  0
 22 21  1  0  0  0  0
 24 26  1  0  0  0  0
 25 24  1  0  0  0  0
 25 26  1  0  0  0  0
M  END
>  <MODEL>
4

>  <REMARK>
  Name = ZINC06801783
                            x       y       z     vdW  Elec       q    Type
                         _______ _______ _______ _____ _____    ______ ____

>  <TORSDO>
F 5

>  <minimizedAffinity>
-6.7453482389778792

$$$$
ZINC06801783
 OpenBabel10211215443D

 26 28  0  0  1  0  0  0  0  0999 V2000
   50.6640   50.7820   17.8230 C   0  0  1  0  0  0  0  0  0  0  0  0
   50.8690   50.2900   19.2420 C   0  0  0  0  0  0  0  0  0  0  0  0
   50.2960   49.1180   19.5900 C   0  0  0  0  0  0  0  0  0  0  0  0
   50.4700   48.5960   20.9910 C   0  0  0  0  0  0  0  0  0  0  0  0
   49.5640   48.3960   18.6900 N   0  0  0  0  0  0  0  0  0  0  0  0
   49.1740   47.5590   18.9830 H   0  0  0  0  0  0  0  0  0  0  0  0
   49.3510   48.7840   17.4260 C   0  0  0  0  0  0  0  0  0  0  0  0
   48.4080   47.7860   16.4030 S   0  0  0  0  0  0  0  0  0  0  0  0
   49.8540   49.9320   16.9320 N   0  0  0  0  0  0  0  0  0  0  0  0
   49.6880   50.1940   16.0130 H   0  0  0  0  0  0  0  0  0  0  0  0
   48.8110   54.6280   18.0180 C   0  0  0  0  0  0  0  0  0  0  0  0
   50.1430   54.4790   18.3760 C   0  0  0  0  0  0  0  0  0  0  0  0
   50.7400   53.2350   18.3120 C   0  0  0  0  0  0  0  0  0  0  0  0
   50.0100   52.1380   17.8910 C   0  0  0  0  0  0  0  0  0  0  0  0
   48.6840   52.2850   17.5290 C   0  0  0  0  0  0  0  0  0  0  0  0
   48.0820   53.5260   17.5960 C   0  0  0  0  0  0  0  0  0  0  0  0
   48.2220   55.8510   18.0800 O   0  0  0  0  0  0  0  0  0  0  0  0
   47.8140   56.9070   20.2150 C   0  0  0  0  0  0  0  0  0  0  0  0
   48.7610   56.7840   19.0190 C   0  0  0  0  0  0  0  0  0  0  0  0
   51.6320   51.0360   20.1720 C   0  0  0  0  0  0  0  0  0  0  0  0
   51.0150   51.8620   21.0410 N   0  0  0  0  0  0  0  0  0  0  0  0
   50.0470   51.8910   21.0780 H   0  0  0  0  0  0  0  0  0  0  0  0
   52.8450   50.9330   20.1870 O   0  0  0  0  0  0  0  0  0  0  0  0
   51.8080   52.7150   21.9300 C   0  0  0  0  0  0  0  0  0  0  0  0
   51.0600   53.7640   22.7540 C   0  0  0  0  0  0  0  0  0  0  0  0
   51.9250   54.1970   21.5680 C   0  0  0  0  0  0  0  0  0  0  0  0
  1 14  1  1  0  0  0
  1  2  1  0  0  0  0
  2  3  2  0  0  0  0
  2 20  1  0  0  0  0
  3  4  1  0  0  0  0
  5  6  1  0  0  0  0
  5  3  1  0  0  0  0
  7  5  1  0  0  0  0
  8  7  2  0  0  0  0
  9  7  1  0  0  0  0
  9  1  1  0  0  0  0
 10  9  1  0  0  0  0
 11 17  1  0  0  0  0
 11 12  2  0  0  0  0
 13 12  1  0  0  0  0
 14 13  2  0  0  0  0
 15 16  2  0  0  0  0
 15 14  1  0  0  0  0
 16 11  1  0  0  0  0
 17 19  1  0  0  0  0
 19 18  1  0  0  0  0
 20 23  2  0  0  0  0
 20 21  1  0  0  0  0
 21 22  1  0  0  0  0
 21 24  1  0  0  0  0
 24 25  1  0  0  0  0
 26 24  1  0  0  0  0
 26 25  1  0  0  0  0
M  END
>  <MODEL>
5

>  <REMARK>
  Name = ZINC06801783
                            x       y       z     vdW  Elec       q    Type
                         _______ _______ _______ _____ _____    ______ ____

>  <TORSDO>
F 5

>  <minimizedAffinity>
-6.5378379496662911

$$$$
ZINC06801783
 OpenBabel10211215443D

 26 28  0  0  1  0  0  0  0  0999 V2000
   42.7420   63.2670   19.0830 C   0  0  1  0  0  0  0  0  0  0  0  0
   42.6390   64.0830   17.8100 C   0  0  0  0  0  0  0  0  0  0  0  0
   41.5780   63.8600   17.0040 C   0  0  0  0  0  0  0  0  0  0  0  0
   41.4410   64.6440   15.7270 C   0  0  0  0  0  0  0  0  0  0  0  0
   40.6260   62.9370   17.3320 N   0  0  0  0  0  0  0  0  0  0  0  0
   39.8810   62.8130   16.7250 H   0  0  0  0  0  0  0  0  0  0  0  0
   40.6680   62.1890   18.4420 C   0  0  0  0  0  0  0  0  0  0  0  0
   39.4110   61.0620   18.7290 S   0  0  0  0  0  0  0  0  0  0  0  0
   41.6660   62.2940   19.3420 N   0  0  0  0  0  0  0  0  0  0  0  0
   41.6760   61.7430   20.1390 H   0  0  0  0  0  0  0  0  0  0  0  0
   46.4450   61.1370   18.9890 C   0  0  0  0  0  0  0  0  0  0  0  0
   45.3450   60.6500   18.2980 C   0  0  0  0  0  0  0  0  0  0  0  0
   44.1490   61.3400   18.3300 C   0  0  0  0  0  0  0  0  0  0  0  0
   44.0480   62.5160   19.0500 C   0  0  0  0  0  0  0  0  0  0  0  0
   45.1440   63.0070   19.7350 C   0  0  0  0  0  0  0  0  0  0  0  0
   46.3410   62.3170   19.7100 C   0  0  0  0  0  0  0  0  0  0  0  0
   47.6230   60.4590   18.9590 O   0  0  0  0  0  0  0  0  0  0  0  0
   47.6130   58.4450   20.2940 C   0  0  0  0  0  0  0  0  0  0  0  0
   47.5490   59.0340   18.8830 C   0  0  0  0  0  0  0  0  0  0  0  0
   43.6240   65.0430   17.4740 C   0  0  0  0  0  0  0  0  0  0  0  0
   44.6290   64.7140   16.6390 N   0  0  0  0  0  0  0  0  0  0  0  0
   44.6380   63.8430   16.2110 H   0  0  0  0  0  0  0  0  0  0  0  0
   43.5640   66.1660   17.9410 O   0  0  0  0  0  0  0  0  0  0  0  0
   45.7070   65.6700   16.3760 C   0  0  0  0  0  0  0  0  0  0  0  0
   46.9780   65.1370   15.7120 C   0  0  0  0  0  0  0  0  0  0  0  0
   46.9930   65.5270   17.1920 C   0  0  0  0  0  0  0  0  0  0  0  0
  1 14  1  6  0  0  0
  1  9  1  0  0  0  0
  2  1  1  0  0  0  0
  3  5  1  0  0  0  0
  3  2  2  0  0  0  0
  4  3  1  0  0  0  0
  5  7  1  0  0  0  0
  6  5  1  0  0  0  0
  7  8  2  0  0  0  0
  7  9  1  0  0  0  0
  9 10  1  0  0  0  0
 11 16  2  0  0  0  0
 12 13  2  0  0  0  0
 12 11  1  0  0  0  0
 13 14  1  0  0  0  0
 14 15  2  0  0  0  0
 16 15  1  0  0  0  0
 17 11  1  0  0  0  0
 19 17  1  0  0  0  0
 19 18  1  0  0  0  0
 20  2  1  0  0  0  0
 20 23  2  0  0  0  0
 21 20  1  0  0  0  0
 22 21  1  0  0  0  0
 24 21  1  0  0  0  0
 24 26  1  0  0  0  0
 25 24  1  0  0  0  0
 25 26  1  0  0  0  0
M  END
>  <MODEL>
6

>  <REMARK>
  Name = ZINC06801783
                            x       y       z     vdW  Elec       q    Type
                         _______ _______ _______ _____ _____    ______ ____

>  <TORSDO>
F 5

>  <minimizedAffinity>
-6.3444445007070156

$$$$
ZINC06801783
 OpenBabel10211215443D

 26 28  0  0  1  0  0  0  0  0999 V2000
   49.8730   51.2530   17.2030 C   0  0  1  0  0  0  0  0  0  0  0  0
   49.4200   52.4800   17.9680 C   0  0  0  0  0  0  0  0  0  0  0  0
   50.0150   52.7380   19.1530 C   0  0  0  0  0  0  0  0  0  0  0  0
   49.5900   53.9440   19.9480 C   0  0  0  0  0  0  0  0  0  0  0  0
   50.9970   51.9240   19.6400 N   0  0  0  0  0  0  0  0  0  0  0  0
   51.3980   52.1500   20.4930 H   0  0  0  0  0  0  0  0  0  0  0  0
   51.4350   50.8270   19.0070 C   0  0  0  0  0  0  0  0  0  0  0  0
   52.6700   49.8900   19.7330 S   0  0  0  0  0  0  0  0  0  0  0  0
   50.9350   50.4380   17.8170 N   0  0  0  0  0  0  0  0  0  0  0  0
   51.2670   49.6410   17.3760 H   0  0  0  0  0  0  0  0  0  0  0  0
   46.4670   48.7420   16.6060 C   0  0  0  0  0  0  0  0  0  0  0  0
   47.1140   49.3060   15.5160 C   0  0  0  0  0  0  0  0  0  0  0  0
   48.2150   50.1170   15.7120 C   0  0  0  0  0  0  0  0  0  0  0  0
   48.6710   50.3670   16.9930 C   0  0  0  0  0  0  0  0  0  0  0  0
   48.0310   49.8030   18.0800 C   0  0  0  0  0  0  0  0  0  0  0  0
   46.9260   48.9950   17.8900 C   0  0  0  0  0  0  0  0  0  0  0  0
   45.3830   47.9440   16.4160 O   0  0  0  0  0  0  0  0  0  0  0  0
   44.0660   47.5350   14.4310 C   0  0  0  0  0  0  0  0  0  0  0  0
   45.3390   47.1870   15.2050 C   0  0  0  0  0  0  0  0  0  0  0  0
   48.4050   53.3270   17.4600 C   0  0  0  0  0  0  0  0  0  0  0  0
   48.7310   54.5050   16.8940 N   0  0  0  0  0  0  0  0  0  0  0  0
   49.6630   54.7420   16.7690 H   0  0  0  0  0  0  0  0  0  0  0  0
   47.2370   52.9900   17.5350 O   0  0  0  0  0  0  0  0  0  0  0  0
   47.6780   55.4300   16.4660 C   0  0  0  0  0  0  0  0  0  0  0  0
   47.9950   56.3740   15.3050 C   0  0  0  0  0  0  0  0  0  0  0  0
   47.8950   56.9210   16.7310 C   0  0  0  0  0  0  0  0  0  0  0  0
  1 14  1  1  0  0  0
  1  9  1  0  0  0  0
  1  2  1  0  0  0  0
  2  3  2  0  0  0  0
  3  5  1  0  0  0  0
  3  4  1  0  0  0  0
  5  6  1  0  0  0  0
  7  5  1  0  0  0  0
  7  8  2  0  0  0  0
  9  7  1  0  0  0  0
 10  9  1  0  0  0  0
 11 16  2  0  0  0  0
 12 13  2  0  0  0  0
 12 11  1  0  0  0  0
 13 14  1  0  0  0  0
 14 15  2  0  0  0  0
 16 15  1  0  0  0  0
 17 11  1  0  0  0  0
 18 19  1  0  0  0  0
 19 17  1  0  0  0  0
 20 23  2  0  0  0  0
 20  2  1  0  0  0  0
 21 20  1  0  0  0  0
 22 21  1  0  0  0  0
 24 26  1  0  0  0  0
 24 21  1  0  0  0  0
 25 24  1  0  0  0  0
 25 26  1  0  0  0  0
M  END
>  <MODEL>
7

>  <REMARK>
  Name = ZINC06801783
                            x       y       z     vdW  Elec       q    Type
                         _______ _______ _______ _____ _____    ______ ____

>  <TORSDO>
F 5

>  <minimizedAffinity>
-6.1839789143914068

$$$$
ZINC06801783
 OpenBabel10211215443D

 26 28  0  0  1  0  0  0  0  0999 V2000
   45.1490   61.9110   17.0180 C   0  0  1  0  0  0  0  0  0  0  0  0
   43.9520   62.1650   17.9130 C   0  0  0  0  0  0  0  0  0  0  0  0
   43.7540   63.4260   18.3540 C   0  0  0  0  0  0  0  0  0  0  0  0
   42.5800   63.7210   19.2500 C   0  0  0  0  0  0  0  0  0  0  0  0
   44.5970   64.4390   17.9970 N   0  0  0  0  0  0  0  0  0  0  0  0
   44.4140   65.3290   18.3350 H   0  0  0  0  0  0  0  0  0  0  0  0
   45.6690   64.2700   17.2110 C   0  0  0  0  0  0  0  0  0  0  0  0
   46.6490   65.6260   16.8460 S   0  0  0  0  0  0  0  0  0  0  0  0
   46.0000   63.0690   16.6970 N   0  0  0  0  0  0  0  0  0  0  0  0
   46.7800   62.9700   16.1290 H   0  0  0  0  0  0  0  0  0  0  0  0
   47.6000   58.9610   18.9030 C   0  0  0  0  0  0  0  0  0  0  0  0
   47.2870   60.1360   19.5720 C   0  0  0  0  0  0  0  0  0  0  0  0
   46.4940   61.0870   18.9610 C   0  0  0  0  0  0  0  0  0  0  0  0
   46.0130   60.8700   17.6830 C   0  0  0  0  0  0  0  0  0  0  0  0
   46.3190   59.6980   17.0160 C   0  0  0  0  0  0  0  0  0  0  0  0
   47.1160   58.7460   17.6210 C   0  0  0  0  0  0  0  0  0  0  0  0
   48.3800   58.0230   19.5020 O   0  0  0  0  0  0  0  0  0  0  0  0
   49.3860   57.7200   21.6790 C   0  0  0  0  0  0  0  0  0  0  0  0
   48.0890   57.7120   20.8660 C   0  0  0  0  0  0  0  0  0  0  0  0
   43.0750   61.1150   18.2780 C   0  0  0  0  0  0  0  0  0  0  0  0
   42.2860   60.5420   17.3480 N   0  0  0  0  0  0  0  0  0  0  0  0
   42.3700   60.7980   16.4170 H   0  0  0  0  0  0  0  0  0  0  0  0
   43.0320   60.7310   19.4330 O   0  0  0  0  0  0  0  0  0  0  0  0
   41.3010   59.5330   17.7430 C   0  0  0  0  0  0  0  0  0  0  0  0
   41.1290   58.3180   16.8300 C   0  0  0  0  0  0  0  0  0  0  0  0
   40.0440   59.3950   16.8830 C   0  0  0  0  0  0  0  0  0  0  0  0
  1 14  1  1  0  0  0
  1  2  1  0  0  0  0
  2 20  1  0  0  0  0
  2  3  2  0  0  0  0
  3  4  1  0  0  0  0
  5  6  1  0  0  0  0
  5  3  1  0  0  0  0
  7  5  1  0  0  0  0
  8  7  2  0  0  0  0
  9  1  1  0  0  0  0
  9  7  1  0  0  0  0
 10  9  1  0  0  0  0
 11 17  1  0  0  0  0
 11 12  2  0  0  0  0
 13 12  1  0  0  0  0
 14 13  2  0  0  0  0
 15 16  2  0  0  0  0
 15 14  1  0  0  0  0
 16 11  1  0  0  0  0
 17 19  1  0  0  0  0
 19 18  1  0  0  0  0
 20 23  2  0  0  0  0
 21 24  1  0  0  0  0
 21 20  1  0  0  0  0
 22 21  1  0  0  0  0
 25 26  1  0  0  0  0
 25 24  1  0  0  0  0
 26 24  1  0  0  0  0
M  END
>  <MODEL>
8

>  <REMARK>
  Name = ZINC06801783
                            x       y       z     vdW  Elec       q    Type
                         _______ _______ _______ _____ _____    ______ ____

>  <TORSDO>
F 5

>  <minimizedAffinity>
-6.1768108601088061

$$$$
ZINC06801783
 OpenBabel10211215443D

 26 28  0  0  1  0  0  0  0  0999 V2000
   50.1580   53.2670   20.0850 C   0  0  1  0  0  0  0  0  0  0  0  0
   49.1910   53.9070   19.1100 C   0  0  0  0  0  0  0  0  0  0  0  0
   49.1930   53.4590   17.8360 C   0  0  0  0  0  0  0  0  0  0  0  0
   48.2520   54.0730   16.8340 C   0  0  0  0  0  0  0  0  0  0  0  0
   50.0320   52.4560   17.4430 N   0  0  0  0  0  0  0  0  0  0  0  0
   49.9960   52.1640   16.5200 H   0  0  0  0  0  0  0  0  0  0  0  0
   50.9060   51.8560   18.2620 C   0  0  0  0  0  0  0  0  0  0  0  0
   51.9060   50.6140   17.6380 S   0  0  0  0  0  0  0  0  0  0  0  0
   51.0240   52.1960   19.5610 N   0  0  0  0  0  0  0  0  0  0  0  0
   51.6630   51.7480   20.1360 H   0  0  0  0  0  0  0  0  0  0  0  0
   52.6720   56.3420   21.6610 C   0  0  0  0  0  0  0  0  0  0  0  0
   51.8250   55.6370   22.5040 C   0  0  0  0  0  0  0  0  0  0  0  0
   51.0130   54.6430   21.9920 C   0  0  0  0  0  0  0  0  0  0  0  0
   51.0450   54.3510   20.6410 C   0  0  0  0  0  0  0  0  0  0  0  0
   51.8930   55.0480   19.8000 C   0  0  0  0  0  0  0  0  0  0  0  0
   52.7030   56.0460   20.3060 C   0  0  0  0  0  0  0  0  0  0  0  0
   53.4720   57.3200   22.1620 O   0  0  0  0  0  0  0  0  0  0  0  0
   52.4990   59.5030   21.8010 C   0  0  0  0  0  0  0  0  0  0  0  0
   53.5940   58.5160   21.3900 C   0  0  0  0  0  0  0  0  0  0  0  0
   48.3180   54.9440   19.5200 C   0  0  0  0  0  0  0  0  0  0  0  0
   48.6800   56.2330   19.3610 N   0  0  0  0  0  0  0  0  0  0  0  0
   49.5050   56.4510   18.9010 H   0  0  0  0  0  0  0  0  0  0  0  0
   47.2400   54.6720   20.0170 O   0  0  0  0  0  0  0  0  0  0  0  0
   47.8270   57.3030   19.8820 C   0  0  0  0  0  0  0  0  0  0  0  0
   48.3420   58.7390   19.7610 C   0  0  0  0  0  0  0  0  0  0  0  0
   48.3100   58.0490   21.1270 C   0  0  0  0  0  0  0  0  0  0  0  0
  1 14  1  6  0  0  0
  2 20  1  0  0  0  0
  2  1  1  0  0  0  0
  3  2  2  0  0  0  0
  4  3  1  0  0  0  0
  5  3  1  0  0  0  0
  5  7  1  0  0  0  0
  6  5  1  0  0  0  0
  7  9  1  0  0  0  0
  8  7  2  0  0  0  0
  9  1  1  0  0  0  0
  9 10  1  0  0  0  0
 11 17  1  0  0  0  0
 11 12  2  0  0  0  0
 13 12  1  0  0  0  0
 14 13  2  0  0  0  0
 15 16  2  0  0  0  0
 15 14  1  0  0  0  0
 16 11  1  0  0  0  0
 19 18  1  0  0  0  0
 19 17  1  0  0  0  0
 20 23  2  0  0  0  0
 21 20  1  0  0  0  0
 21 24  1  0  0  0  0
 22 21  1  0  0  0  0
 24 26  1  0  0  0  0
 25 24  1  0  0  0  0
 25 26  1  0  0  0  0
M  END
>  <MODEL>
9

>  <REMARK>
  Name = ZINC06801783
                            x       y       z     vdW  Elec       q    Type
                         _______ _______ _______ _____ _____    ______ ____

>  <TORSDO>
F 5

>  <minimizedAffinity>
-6.1511585741805765

$$$$
ZINC49359637
 OpenBabel10211215453D

 23 24  0  0  0  0  0  0  0  0999 V2000
   49.9120   49.2070   17.9510 N   0  0  0  0  0  0  0  0  0  0  0  0
   50.4110   48.7380   17.2640 H   0  0  0  0  0  0  0  0  0  0  0  0
   50.5630   49.7840   18.9810 C   0  0  0  0  0  0  0  0  0  0  0  0
   51.9110   49.8080   18.9970 N   0  0  0  0  0  0  0  0  0  0  0  0
   52.4120   49.4090   18.2680 H   0  0  0  0  0  0  0  0  0  0  0  0
   49.9340   50.2830   19.8940 O   0  0  0  0  0  0  0  0  0  0  0  0
   47.9100   50.3170   17.1560 C   0  0  0  0  0  0  0  0  0  0  0  0
   46.5260   50.3830   17.0780 C   0  0  0  0  0  0  0  0  0  0  0  0
   45.7500   49.4330   17.7150 C   0  0  0  0  0  0  0  0  0  0  0  0
   46.3510   48.4130   18.4320 C   0  0  0  0  0  0  0  0  0  0  0  0
   45.3700   47.2230   19.2300 Cl  0  0  0  0  0  0  0  0  0  0  0  0
   47.7290   48.3380   18.5140 C   0  0  0  0  0  0  0  0  0  0  0  0
   48.5140   49.2840   17.8730 C   0  0  0  0  0  0  0  0  0  0  0  0
   49.0370   52.8670   17.5590 C   0  0  0  0  0  0  0  0  0  0  0  0
   48.9000   51.5270   16.3450 S   0  0  0  0  0  0  0  0  0  0  0  0
   52.6180   50.4350   20.1160 C   0  0  0  0  0  0  0  0  0  0  0  0
   52.5220   51.9340   19.9940 C   0  0  0  0  0  0  0  0  0  0  0  0
   52.0420   52.6650   21.0190 N   0  0  0  0  0  0  0  0  0  0  0  0
   51.7570   52.2270   21.8370 H   0  0  0  0  0  0  0  0  0  0  0  0
   52.8770   52.4830   18.9710 O   0  0  0  0  0  0  0  0  0  0  0  0
   51.9490   54.1220   20.9000 C   0  0  0  0  0  0  0  0  0  0  0  0
   51.5540   54.9100   22.1500 C   0  0  0  0  0  0  0  0  0  0  0  0
   50.5590   54.7520   20.9990 C   0  0  0  0  0  0  0  0  0  0  0  0
  1  3  1  0  0  0  0
  2  1  1  0  0  0  0
  3  4  1  0  0  0  0
  3  6  2  0  0  0  0
  4 16  1  0  0  0  0
  5  4  1  0  0  0  0
  7 13  1  0  0  0  0
  8  7  2  0  0  0  0
  8  9  1  0  0  0  0
  9 10  2  0  0  0  0
 10 12  1  0  0  0  0
 10 11  1  0  0  0  0
 13  1  1  0  0  0  0
 13 12  2  0  0  0  0
 15  7  1  0  0  0  0
 15 14  1  0  0  0  0
 17 16  1  0  0  0  0
 17 18  1  0  0  0  0
 18 19  1  0  0  0  0
 20 17  2  0  0  0  0
 21 23  1  0  0  0  0
 21 18  1  0  0  0  0
 21 22  1  0  0  0  0
 23 22  1  0  0  0  0
M  END
>  <MODEL>
1

>  <REMARK>
  Name = ZINC49359637
                            x       y       z     vdW  Elec       q    Type
                         _______ _______ _______ _____ _____    ______ ____

>  <TORSDO>
F 5

>  <minimizedAffinity>
-7.3348650515889577

$$$$
ZINC49359637
 OpenBabel10211215453D

 23 24  0  0  0  0  0  0  0  0999 V2000
   49.3830   47.7830   17.5410 N   0  0  0  0  0  0  0  0  0  0  0  0
   50.1460   47.2150   17.3500 H   0  0  0  0  0  0  0  0  0  0  0  0
   49.3300   48.4740   18.6970 C   0  0  0  0  0  0  0  0  0  0  0  0
   50.3860   48.4660   19.5360 N   0  0  0  0  0  0  0  0  0  0  0  0
   51.1830   47.9630   19.3070 H   0  0  0  0  0  0  0  0  0  0  0  0
   48.3310   49.1040   18.9840 O   0  0  0  0  0  0  0  0  0  0  0  0
   48.3400   48.9030   15.6630 C   0  0  0  0  0  0  0  0  0  0  0  0
   47.3030   48.9940   14.7460 C   0  0  0  0  0  0  0  0  0  0  0  0
   46.2650   48.0810   14.7810 C   0  0  0  0  0  0  0  0  0  0  0  0
   46.2580   47.0740   15.7310 C   0  0  0  0  0  0  0  0  0  0  0  0
   44.9510   45.9310   15.7710 Cl  0  0  0  0  0  0  0  0  0  0  0  0
   47.2880   46.9760   16.6490 C   0  0  0  0  0  0  0  0  0  0  0  0
   48.3350   47.8840   16.6160 C   0  0  0  0  0  0  0  0  0  0  0  0
   50.7230   49.4740   14.2720 C   0  0  0  0  0  0  0  0  0  0  0  0
   49.6630   50.0660   15.6190 S   0  0  0  0  0  0  0  0  0  0  0  0
   50.3280   49.2170   20.7920 C   0  0  0  0  0  0  0  0  0  0  0  0
   51.1670   50.4630   20.6710 C   0  0  0  0  0  0  0  0  0  0  0  0
   51.0660   51.4370   21.5980 N   0  0  0  0  0  0  0  0  0  0  0  0
   50.4530   51.3350   22.3430 H   0  0  0  0  0  0  0  0  0  0  0  0
   51.9330   50.5910   19.7380 O   0  0  0  0  0  0  0  0  0  0  0  0
   51.8810   52.6480   21.4800 C   0  0  0  0  0  0  0  0  0  0  0  0
   51.5140   53.8370   22.3700 C   0  0  0  0  0  0  0  0  0  0  0  0
   51.2230   53.8860   20.8690 C   0  0  0  0  0  0  0  0  0  0  0  0
  1  3  1  0  0  0  0
  2  1  1  0  0  0  0
  3  6  2  0  0  0  0
  3  4  1  0  0  0  0
  4 16  1  0  0  0  0
  5  4  1  0  0  0  0
  7 13  2  0  0  0  0
  8  9  2  0  0  0  0
  8  7  1  0  0  0  0
  9 10  1  0  0  0  0
 10 11  1  0  0  0  0
 10 12  2  0  0  0  0
 13 12  1  0  0  0  0
 13  1  1  0  0  0  0
 14 15  1  0  0  0  0
 15  7  1  0  0  0  0
 17 16  1  0  0  0  0
 17 18  1  0  0  0  0
 18 19  1  0  0  0  0
 20 17  2  0  0  0  0
 21 18  1  0  0  0  0
 21 22  1  0  0  0  0
 23 21  1  0  0  0  0
 23 22  1  0  0  0  0
M  END
>  <MODEL>
2

>  <REMARK>
  Name = ZINC49359637
                            x       y       z     vdW  Elec       q    Type
                         _______ _______ _______ _____ _____    ______ ____

>  <TORSDO>
F 5

>  <minimizedAffinity>
-7.0490226896070265

$$$$
ZINC49359637
 OpenBabel10211215453D

 23 24  0  0  0  0  0  0  0  0999 V2000
   51.9420   51.1470   17.6070 N   0  0  0  0  0  0  0  0  0  0  0  0
   52.7830   50.7850   17.2870 H   0  0  0  0  0  0  0  0  0  0  0  0
   50.8120   50.9520   16.9000 C   0  0  0  0  0  0  0  0  0  0  0  0
   50.8280   50.1610   15.8080 N   0  0  0  0  0  0  0  0  0  0  0  0
   51.6530   49.7320   15.5320 H   0  0  0  0  0  0  0  0  0  0  0  0
   49.7780   51.4900   17.2460 O   0  0  0  0  0  0  0  0  0  0  0  0
   51.8430   51.2010   20.0280 C   0  0  0  0  0  0  0  0  0  0  0  0
   51.8110   51.9250   21.2110 C   0  0  0  0  0  0  0  0  0  0  0  0
   51.8300   53.3070   21.1770 C   0  0  0  0  0  0  0  0  0  0  0  0
   51.8830   53.9720   19.9650 C   0  0  0  0  0  0  0  0  0  0  0  0
   51.9070   55.7080   19.9300 Cl  0  0  0  0  0  0  0  0  0  0  0  0
   51.9160   53.2580   18.7810 C   0  0  0  0  0  0  0  0  0  0  0  0
   51.9030   51.8720   18.8060 C   0  0  0  0  0  0  0  0  0  0  0  0
   50.0610   49.0220   19.8970 C   0  0  0  0  0  0  0  0  0  0  0  0
   51.8180   49.4400   20.0690 S   0  0  0  0  0  0  0  0  0  0  0  0
   49.5990   49.9500   15.0390 C   0  0  0  0  0  0  0  0  0  0  0  0
   48.7290   48.9450   15.7490 C   0  0  0  0  0  0  0  0  0  0  0  0
   47.5730   49.3370   16.3190 N   0  0  0  0  0  0  0  0  0  0  0  0
   47.3000   50.2670   16.2720 H   0  0  0  0  0  0  0  0  0  0  0  0
   49.0700   47.7820   15.8080 O   0  0  0  0  0  0  0  0  0  0  0  0
   46.7270   48.3600   17.0080 C   0  0  0  0  0  0  0  0  0  0  0  0
   45.4560   48.8780   17.6850 C   0  0  0  0  0  0  0  0  0  0  0  0
   46.6520   48.4430   18.5340 C   0  0  0  0  0  0  0  0  0  0  0  0
  1 13  1  0  0  0  0
  2  1  1  0  0  0  0
  3  6  2  0  0  0  0
  3  1  1  0  0  0  0
  4  3  1  0  0  0  0
  5  4  1  0  0  0  0
  7 15  1  0  0  0  0
  7  8  2  0  0  0  0
  9  8  1  0  0  0  0
 10  9  2  0  0  0  0
 11 10  1  0  0  0  0
 12 13  2  0  0  0  0
 12 10  1  0  0  0  0
 13  7  1  0  0  0  0
 14 15  1  0  0  0  0
 16 17  1  0  0  0  0
 16  4  1  0  0  0  0
 17 20  2  0  0  0  0
 17 18  1  0  0  0  0
 18 21  1  0  0  0  0
 19 18  1  0  0  0  0
 21 22  1  0  0  0  0
 21 23  1  0  0  0  0
 22 23  1  0  0  0  0
M  END
>  <MODEL>
3

>  <REMARK>
  Name = ZINC49359637
                            x       y       z     vdW  Elec       q    Type
                         _______ _______ _______ _____ _____    ______ ____

>  <TORSDO>
F 5

>  <minimizedAffinity>
-6.8962702242514196

$$$$
ZINC49359637
 OpenBabel10211215453D

 23 24  0  0  0  0  0  0  0  0999 V2000
   51.7490   54.2440   19.3580 N   0  0  0  0  0  0  0  0  0  0  0  0
   51.7460   54.2860   18.3890 H   0  0  0  0  0  0  0  0  0  0  0  0
   51.9730   53.0700   19.9810 C   0  0  0  0  0  0  0  0  0  0  0  0
   52.3060   51.9790   19.2620 N   0  0  0  0  0  0  0  0  0  0  0  0
   52.3840   52.0390   18.2970 H   0  0  0  0  0  0  0  0  0  0  0  0
   51.8760   52.9950   21.1900 O   0  0  0  0  0  0  0  0  0  0  0  0
   50.2150   55.8490   20.3290 C   0  0  0  0  0  0  0  0  0  0  0  0
   49.9950   56.9950   21.0800 C   0  0  0  0  0  0  0  0  0  0  0  0
   51.0650   57.6960   21.6030 C   0  0  0  0  0  0  0  0  0  0  0  0
   52.3580   57.2570   21.3800 C   0  0  0  0  0  0  0  0  0  0  0  0
   53.6980   58.1430   22.0410 Cl  0  0  0  0  0  0  0  0  0  0  0  0
   52.5870   56.1160   20.6340 C   0  0  0  0  0  0  0  0  0  0  0  0
   51.5190   55.4040   20.1100 C   0  0  0  0  0  0  0  0  0  0  0  0
   48.6830   55.6060   17.9760 C   0  0  0  0  0  0  0  0  0  0  0  0
   48.8520   54.9550   19.6600 S   0  0  0  0  0  0  0  0  0  0  0  0
   52.5500   50.7030   19.9390 C   0  0  0  0  0  0  0  0  0  0  0  0
   51.2640   49.9210   20.0140 C   0  0  0  0  0  0  0  0  0  0  0  0
   50.6310   49.5540   18.8820 N   0  0  0  0  0  0  0  0  0  0  0  0
   51.0040   49.7920   18.0180 H   0  0  0  0  0  0  0  0  0  0  0  0
   50.7970   49.6230   21.0930 O   0  0  0  0  0  0  0  0  0  0  0  0
   49.3820   48.7930   18.9550 C   0  0  0  0  0  0  0  0  0  0  0  0
   48.8160   48.2350   17.6470 C   0  0  0  0  0  0  0  0  0  0  0  0
   48.1350   49.4220   18.3310 C   0  0  0  0  0  0  0  0  0  0  0  0
  1  3  1  0  0  0  0
  1 13  1  0  0  0  0
  2  1  1  0  0  0  0
  3  6  2  0  0  0  0
  4 16  1  0  0  0  0
  4  3  1  0  0  0  0
  5  4  1  0  0  0  0
  7  8  1  0  0  0  0
  8  9  2  0  0  0  0
 10  9  1  0  0  0  0
 10 11  1  0  0  0  0
 12 10  2  0  0  0  0
 13  7  2  0  0  0  0
 13 12  1  0  0  0  0
 14 15  1  0  0  0  0
 15  7  1  0  0  0  0
 16 17  1  0  0  0  0
 17 20  2  0  0  0  0
 18 21  1  0  0  0  0
 18 17  1  0  0  0  0
 19 18  1  0  0  0  0
 22 23  1  0  0  0  0
 22 21  1  0  0  0  0
 23 21  1  0  0  0  0
M  END
>  <MODEL>
4

>  <REMARK>
  Name = ZINC49359637
                            x       y       z     vdW  Elec       q    Type
                         _______ _______ _______ _____ _____    ______ ____

>  <TORSDO>
F 5

>  <minimizedAffinity>
-6.8748431680869642

$$$$
ZINC49359637
 OpenBabel10211215453D

 23 24  0  0  0  0  0  0  0  0999 V2000
   50.7420   55.1920   18.7890 N   0  0  0  0  0  0  0  0  0  0  0  0
   51.0660   55.4940   17.9260 H   0  0  0  0  0  0  0  0  0  0  0  0
   50.7770   53.8800   19.1000 C   0  0  0  0  0  0  0  0  0  0  0  0
   51.3660   53.0050   18.2600 N   0  0  0  0  0  0  0  0  0  0  0  0
   51.7640   53.3180   17.4330 H   0  0  0  0  0  0  0  0  0  0  0  0
   50.2790   53.4880   20.1360 O   0  0  0  0  0  0  0  0  0  0  0  0
   51.0930   56.7420   20.6170 C   0  0  0  0  0  0  0  0  0  0  0  0
   50.5870   57.6620   21.5240 C   0  0  0  0  0  0  0  0  0  0  0  0
   49.2360   57.9520   21.5330 C   0  0  0  0  0  0  0  0  0  0  0  0
   48.3840   57.3270   20.6400 C   0  0  0  0  0  0  0  0  0  0  0  0
   46.6880   57.6960   20.6570 Cl  0  0  0  0  0  0  0  0  0  0  0  0
   48.8810   56.4090   19.7320 C   0  0  0  0  0  0  0  0  0  0  0  0
   50.2360   56.1170   19.7120 C   0  0  0  0  0  0  0  0  0  0  0  0
   53.5970   57.8930   21.2050 C   0  0  0  0  0  0  0  0  0  0  0  0
   52.8160   56.3710   20.6040 S   0  0  0  0  0  0  0  0  0  0  0  0
   51.4040   51.5800   18.5980 C   0  0  0  0  0  0  0  0  0  0  0  0
   50.2900   50.8640   17.8790 C   0  0  0  0  0  0  0  0  0  0  0  0
   49.2880   50.2990   18.5820 N   0  0  0  0  0  0  0  0  0  0  0  0
   49.2840   50.3530   19.5510 H   0  0  0  0  0  0  0  0  0  0  0  0
   50.2940   50.7950   16.6680 O   0  0  0  0  0  0  0  0  0  0  0  0
   48.2050   49.6030   17.8840 C   0  0  0  0  0  0  0  0  0  0  0  0
   47.3050   48.6840   18.7120 C   0  0  0  0  0  0  0  0  0  0  0  0
   48.3200   48.0850   17.7360 C   0  0  0  0  0  0  0  0  0  0  0  0
  1  3  1  0  0  0  0
  1 13  1  0  0  0  0
  2  1  1  0  0  0  0
  3  6  2  0  0  0  0
  4 16  1  0  0  0  0
  4  3  1  0  0  0  0
  5  4  1  0  0  0  0
  7  8  2  0  0  0  0
  8  9  1  0  0  0  0
 10 11  1  0  0  0  0
 10  9  2  0  0  0  0
 12 10  1  0  0  0  0
 13 12  2  0  0  0  0
 13  7  1  0  0  0  0
 15  7  1  0  0  0  0
 15 14  1  0  0  0  0
 17 18  1  0  0  0  0
 17 16  1  0  0  0  0
 18 19  1  0  0  0  0
 20 17  2  0  0  0  0
 21 18  1  0  0  0  0
 21 22  1  0  0  0  0
 23 21  1  0  0  0  0
 23 22  1  0  0  0  0
M  END
>  <MODEL>
5

>  <REMARK>
  Name = ZINC49359637
                            x       y       z     vdW  Elec       q    Type
                         _______ _______ _______ _____ _____    ______ ____

>  <TORSDO>
F 5

>  <minimizedAffinity>
-6.74525191326161

$$$$
ZINC49359637
 OpenBabel10211215453D

 23 24  0  0  0  0  0  0  0  0999 V2000
   51.5330   53.6050   19.0800 N   0  0  0  0  0  0  0  0  0  0  0  0
   52.3270   53.8310   18.5700 H   0  0  0  0  0  0  0  0  0  0  0  0
   51.2830   54.2290   20.2490 C   0  0  0  0  0  0  0  0  0  0  0  0
   52.0740   55.2430   20.6540 N   0  0  0  0  0  0  0  0  0  0  0  0
   52.8220   55.5240   20.1040 H   0  0  0  0  0  0  0  0  0  0  0  0
   50.3460   53.8760   20.9370 O   0  0  0  0  0  0  0  0  0  0  0  0
   50.9780   51.2800   18.6870 C   0  0  0  0  0  0  0  0  0  0  0  0
   50.0920   50.3210   18.2170 C   0  0  0  0  0  0  0  0  0  0  0  0
   48.8880   50.7060   17.6590 C   0  0  0  0  0  0  0  0  0  0  0  0
   48.5610   52.0470   17.5670 C   0  0  0  0  0  0  0  0  0  0  0  0
   47.0470   52.5240   16.8650 Cl  0  0  0  0  0  0  0  0  0  0  0  0
   49.4380   53.0100   18.0350 C   0  0  0  0  0  0  0  0  0  0  0  0
   50.6460   52.6310   18.6010 C   0  0  0  0  0  0  0  0  0  0  0  0
   52.2210   50.8890   21.1850 C   0  0  0  0  0  0  0  0  0  0  0  0
   52.5140   50.7900   19.3980 S   0  0  0  0  0  0  0  0  0  0  0  0
   51.8020   55.9200   21.9240 C   0  0  0  0  0  0  0  0  0  0  0  0
   50.8920   57.0960   21.6810 C   0  0  0  0  0  0  0  0  0  0  0  0
   49.5740   56.8990   21.4830 N   0  0  0  0  0  0  0  0  0  0  0  0
   49.2100   56.0000   21.4960 H   0  0  0  0  0  0  0  0  0  0  0  0
   51.3460   58.2210   21.6640 O   0  0  0  0  0  0  0  0  0  0  0  0
   48.6890   58.0430   21.2480 C   0  0  0  0  0  0  0  0  0  0  0  0
   47.3010   57.7560   20.6720 C   0  0  0  0  0  0  0  0  0  0  0  0
   48.3740   58.4050   19.7950 C   0  0  0  0  0  0  0  0  0  0  0  0
  1  3  1  0  0  0  0
  2  1  1  0  0  0  0
  3  4  1  0  0  0  0
  3  6  2  0  0  0  0
  4 16  1  0  0  0  0
  5  4  1  0  0  0  0
  7 15  1  0  0  0  0
  8  7  2  0  0  0  0
  9  8  1  0  0  0  0
 10  9  2  0  0  0  0
 10 12  1  0  0  0  0
 11 10  1  0  0  0  0
 12 13  2  0  0  0  0
 13  7  1  0  0  0  0
 13  1  1  0  0  0  0
 15 14  1  0  0  0  0
 17 16  1  0  0  0  0
 18 19  1  0  0  0  0
 18 17  1  0  0  0  0
 20 17  2  0  0  0  0
 21 18  1  0  0  0  0
 22 21  1  0  0  0  0
 23 22  1  0  0  0  0
 23 21  1  0  0  0  0
M  END
>  <MODEL>
6

>  <REMARK>
  Name = ZINC49359637
                            x       y       z     vdW  Elec       q    Type
                         _______ _______ _______ _____ _____    ______ ____

>  <TORSDO>
F 5

>  <minimizedAffinity>
-6.7108678271605724

$$$$
ZINC49359637
 OpenBabel10211215453D

 23 24  0  0  0  0  0  0  0  0999 V2000
   50.2480   53.4690   18.2300 N   0  0  0  0  0  0  0  0  0  0  0  0
   51.0150   53.6840   17.6760 H   0  0  0  0  0  0  0  0  0  0  0  0
   49.6230   54.4430   18.9210 C   0  0  0  0  0  0  0  0  0  0  0  0
   49.9910   55.7300   18.7560 N   0  0  0  0  0  0  0  0  0  0  0  0
   50.7060   55.9540   18.1390 H   0  0  0  0  0  0  0  0  0  0  0  0
   48.7280   54.1610   19.6930 O   0  0  0  0  0  0  0  0  0  0  0  0
   50.4500   51.2270   19.1250 C   0  0  0  0  0  0  0  0  0  0  0  0
   49.9870   49.9210   19.2060 C   0  0  0  0  0  0  0  0  0  0  0  0
   48.8790   49.5330   18.4760 C   0  0  0  0  0  0  0  0  0  0  0  0
   48.2290   50.4450   17.6630 C   0  0  0  0  0  0  0  0  0  0  0  0
   46.8390   49.9510   16.7470 Cl  0  0  0  0  0  0  0  0  0  0  0  0
   48.6830   51.7490   17.5770 C   0  0  0  0  0  0  0  0  0  0  0  0
   49.7900   52.1470   18.3110 C   0  0  0  0  0  0  0  0  0  0  0  0
   51.1750   52.2490   21.6490 C   0  0  0  0  0  0  0  0  0  0  0  0
   51.8620   51.7230   20.0560 S   0  0  0  0  0  0  0  0  0  0  0  0
   49.3120   56.7870   19.5070 C   0  0  0  0  0  0  0  0  0  0  0  0
   50.1340   57.1490   20.7180 C   0  0  0  0  0  0  0  0  0  0  0  0
   51.4710   57.2770   20.6110 N   0  0  0  0  0  0  0  0  0  0  0  0
   51.9060   57.1350   19.7550 H   0  0  0  0  0  0  0  0  0  0  0  0
   49.5910   57.3260   21.7890 O   0  0  0  0  0  0  0  0  0  0  0  0
   52.2690   57.6290   21.7870 C   0  0  0  0  0  0  0  0  0  0  0  0
   52.9560   58.9970   21.7920 C   0  0  0  0  0  0  0  0  0  0  0  0
   53.7860   57.7250   21.6090 C   0  0  0  0  0  0  0  0  0  0  0  0
  1 13  1  0  0  0  0
  1  3  1  0  0  0  0
  2  1  1  0  0  0  0
  3  6  2  0  0  0  0
  4  3  1  0  0  0  0
  4 16  1  0  0  0  0
  5  4  1  0  0  0  0
  7  8  1  0  0  0  0
  7 15  1  0  0  0  0
  9  8  2  0  0  0  0
 10  9  1  0  0  0  0
 11 10  1  0  0  0  0
 12 10  2  0  0  0  0
 12 13  1  0  0  0  0
 13  7  2  0  0  0  0
 15 14  1  0  0  0  0
 16 17  1  0  0  0  0
 17 20  2  0  0  0  0
 18 17  1  0  0  0  0
 18 21  1  0  0  0  0
 19 18  1  0  0  0  0
 21 22  1  0  0  0  0
 23 21  1  0  0  0  0
 23 22  1  0  0  0  0
M  END
>  <MODEL>
7

>  <REMARK>
  Name = ZINC49359637
                            x       y       z     vdW  Elec       q    Type
                         _______ _______ _______ _____ _____    ______ ____

>  <TORSDO>
F 5

>  <minimizedAffinity>
-6.5244847800555368

$$$$
ZINC49359637
 OpenBabel10211215453D

 23 24  0  0  0  0  0  0  0  0999 V2000
   48.9000   49.9780   18.1000 N   0  0  0  0  0  0  0  0  0  0  0  0
   49.7390   49.7350   18.5210 H   0  0  0  0  0  0  0  0  0  0  0  0
   48.6300   51.2710   17.8310 C   0  0  0  0  0  0  0  0  0  0  0  0
   49.5710   52.2140   18.0430 N   0  0  0  0  0  0  0  0  0  0  0  0
   50.4420   51.9610   18.3880 H   0  0  0  0  0  0  0  0  0  0  0  0
   47.5400   51.5870   17.3980 O   0  0  0  0  0  0  0  0  0  0  0  0
   48.0000   48.3830   16.5130 C   0  0  0  0  0  0  0  0  0  0  0  0
   47.0780   47.3960   16.1960 C   0  0  0  0  0  0  0  0  0  0  0  0
   46.1270   47.0150   17.1230 C   0  0  0  0  0  0  0  0  0  0  0  0
   46.0900   47.6160   18.3690 C   0  0  0  0  0  0  0  0  0  0  0  0
   44.8910   47.1340   19.5280 Cl  0  0  0  0  0  0  0  0  0  0  0  0
   47.0060   48.6010   18.6930 C   0  0  0  0  0  0  0  0  0  0  0  0
   47.9680   48.9840   17.7710 C   0  0  0  0  0  0  0  0  0  0  0  0
   48.2730   49.8020   14.0930 C   0  0  0  0  0  0  0  0  0  0  0  0
   49.2140   48.8700   15.3320 S   0  0  0  0  0  0  0  0  0  0  0  0
   49.2770   53.6190   17.7510 C   0  0  0  0  0  0  0  0  0  0  0  0
   49.8390   54.4870   18.8470 C   0  0  0  0  0  0  0  0  0  0  0  0
   49.0110   55.2130   19.6230 N   0  0  0  0  0  0  0  0  0  0  0  0
   48.0530   55.1780   19.4770 H   0  0  0  0  0  0  0  0  0  0  0  0
   51.0380   54.5330   19.0300 O   0  0  0  0  0  0  0  0  0  0  0  0
   49.5570   56.0570   20.6890 C   0  0  0  0  0  0  0  0  0  0  0  0
   48.6940   57.2190   21.1850 C   0  0  0  0  0  0  0  0  0  0  0  0
   49.9310   57.4960   20.3290 C   0  0  0  0  0  0  0  0  0  0  0  0
  1  2  1  0  0  0  0
  3  4  1  0  0  0  0
  3  1  1  0  0  0  0
  4  5  1  0  0  0  0
  6  3  2  0  0  0  0
  7 13  1  0  0  0  0
  8  7  2  0  0  0  0
  8  9  1  0  0  0  0
  9 10  2  0  0  0  0
 10 12  1  0  0  0  0
 10 11  1  0  0  0  0
 13  1  1  0  0  0  0
 13 12  2  0  0  0  0
 14 15  1  0  0  0  0
 15  7  1  0  0  0  0
 16  4  1  0  0  0  0
 16 17  1  0  0  0  0
 17 20  2  0  0  0  0
 17 18  1  0  0  0  0
 18 21  1  0  0  0  0
 19 18  1  0  0  0  0
 21 22  1  0  0  0  0
 23 21  1  0  0  0  0
 23 22  1  0  0  0  0
M  END
>  <MODEL>
8

>  <REMARK>
  Name = ZINC49359637
                            x       y       z     vdW  Elec       q    Type
                         _______ _______ _______ _____ _____    ______ ____

>  <TORSDO>
F 5

>  <minimizedAffinity>
-6.5170447677232746

$$$$
ZINC49359637
 OpenBabel10211215453D

 23 24  0  0  0  0  0  0  0  0999 V2000
   50.4910   51.5130   17.3720 N   0  0  0  0  0  0  0  0  0  0  0  0
   51.1410   51.7140   16.6810 H   0  0  0  0  0  0  0  0  0  0  0  0
   49.6480   50.4720   17.2230 C   0  0  0  0  0  0  0  0  0  0  0  0
   49.7830   49.6420   16.1690 N   0  0  0  0  0  0  0  0  0  0  0  0
   50.4860   49.7940   15.5190 H   0  0  0  0  0  0  0  0  0  0  0  0
   48.7670   50.2820   18.0390 O   0  0  0  0  0  0  0  0  0  0  0  0
   51.2420   52.0160   19.6210 C   0  0  0  0  0  0  0  0  0  0  0  0
   51.1780   52.8090   20.7570 C   0  0  0  0  0  0  0  0  0  0  0  0
   50.3060   53.8810   20.8050 C   0  0  0  0  0  0  0  0  0  0  0  0
   49.4950   54.1650   19.7220 C   0  0  0  0  0  0  0  0  0  0  0  0
   48.4010   55.5120   19.7890 Cl  0  0  0  0  0  0  0  0  0  0  0  0
   49.5520   53.3800   18.5840 C   0  0  0  0  0  0  0  0  0  0  0  0
   50.4280   52.3070   18.5260 C   0  0  0  0  0  0  0  0  0  0  0  0
   51.3920   49.2710   20.2390 C   0  0  0  0  0  0  0  0  0  0  0  0
   52.3530   50.6500   19.5580 S   0  0  0  0  0  0  0  0  0  0  0  0
   48.8660   48.5110   16.0080 C   0  0  0  0  0  0  0  0  0  0  0  0
   47.9070   48.8000   14.8820 C   0  0  0  0  0  0  0  0  0  0  0  0
   46.8490   47.9910   14.6730 N   0  0  0  0  0  0  0  0  0  0  0  0
   46.7050   47.2220   15.2480 H   0  0  0  0  0  0  0  0  0  0  0  0
   48.0860   49.7600   14.1620 O   0  0  0  0  0  0  0  0  0  0  0  0
   45.9160   48.2720   13.5800 C   0  0  0  0  0  0  0  0  0  0  0  0
   44.4500   47.8820   13.7830 C   0  0  0  0  0  0  0  0  0  0  0  0
   45.3310   47.0760   12.8260 C   0  0  0  0  0  0  0  0  0  0  0  0
  1 13  1  0  0  0  0
  2  1  1  0  0  0  0
  3  1  1  0  0  0  0
  3  6  2  0  0  0  0
  4  3  1  0  0  0  0
  5  4  1  0  0  0  0
  7  8  2  0  0  0  0
  8  9  1  0  0  0  0
 10 11  1  0  0  0  0
 10  9  2  0  0  0  0
 12 10  1  0  0  0  0
 13 12  2  0  0  0  0
 13  7  1  0  0  0  0
 15  7  1  0  0  0  0
 15 14  1  0  0  0  0
 16  4  1  0  0  0  0
 17 16  1  0  0  0  0
 18 17  1  0  0  0  0
 18 19  1  0  0  0  0
 20 17  2  0  0  0  0
 21 22  1  0  0  0  0
 21 18  1  0  0  0  0
 23 21  1  0  0  0  0
 23 22  1  0  0  0  0
M  END
>  <MODEL>
9

>  <REMARK>
  Name = ZINC49359637
                            x       y       z     vdW  Elec       q    Type
                         _______ _______ _______ _____ _____    ______ ____

>  <TORSDO>
F 5

>  <minimizedAffinity>
-6.4682570690744265

$$$$
ZINC14280293
 OpenBabel10211215473D

 34 36  0  0  1  0  0  0  0  0999 V2000
   52.4310   51.8540   19.3510 N   0  0  0  0  0  0  0  0  0  0  0  0
   53.2380   51.7680   19.8810 H   0  0  0  0  0  0  0  0  0  0  0  0
   52.0540   53.0630   18.8890 C   0  0  0  0  0  0  0  0  0  0  0  0
   51.0440   53.1710   18.2270 O   0  0  0  0  0  0  0  0  0  0  0  0
   50.8170   50.2280   19.9980 C   0  0  0  0  0  0  0  0  0  0  0  0
   51.6550   50.7230   19.0650 N   0  0  0  0  0  0  0  0  0  0  0  0
   51.7220   50.2950   18.1980 H   0  0  0  0  0  0  0  0  0  0  0  0
   50.7330   50.7630   21.0840 O   0  0  0  0  0  0  0  0  0  0  0  0
   49.9830   49.0110   19.6920 C   0  0  0  0  0  0  0  0  0  0  0  0
   49.5630   49.0520   18.3280 O   0  0  0  0  0  0  0  0  0  0  0  0
   45.0560   47.3490   19.1090 C   0  0  0  0  0  0  0  0  0  0  0  0
   46.0000   48.3270   18.4590 C   0  0  0  0  0  0  0  0  0  0  0  0
   45.5060   49.3140   17.6250 C   0  0  0  0  0  0  0  0  0  0  0  0
   46.3690   50.2120   17.0260 C   0  0  0  0  0  0  0  0  0  0  0  0
   47.7280   50.1260   17.2590 C   0  0  0  0  0  0  0  0  0  0  0  0
   48.2260   49.1390   18.0960 C   0  0  0  0  0  0  0  0  0  0  0  0
   47.3580   48.2340   18.6920 C   0  0  0  0  0  0  0  0  0  0  0  0
   48.6680   51.1060   16.6060 C   0  0  0  0  0  0  0  0  0  0  0  0
   47.9540   52.4440   16.4060 C   0  0  0  0  0  0  0  0  0  0  0  0
   49.1140   50.5580   15.2490 C   0  0  0  0  0  0  0  0  0  0  0  0
   52.8880   54.2810   19.1960 C   0  0  0  0  0  0  0  0  0  0  0  0
   51.9960   55.3720   19.7910 C   0  0  0  0  0  0  0  0  0  0  0  0
   51.3800   54.8710   21.0980 C   0  0  2  0  0  0  0  0  0  0  0  0
   49.8750   54.6540   20.9090 C   0  0  0  0  0  0  0  0  0  0  0  0
   49.1830   55.9870   20.7940 C   0  0  0  0  0  0  0  0  0  0  0  0
   48.0650   56.1180   19.9930 C   0  0  0  0  0  0  0  0  0  0  0  0
   47.4050   57.3300   19.9190 C   0  0  0  0  0  0  0  0  0  0  0  0
   47.8590   58.4140   20.6480 C   0  0  0  0  0  0  0  0  0  0  0  0
   48.9800   58.2920   21.4440 C   0  0  0  0  0  0  0  0  0  0  0  0
   49.6580   57.0810   21.5070 C   0  0  0  0  0  0  0  0  0  0  0  0
   50.7980   56.9560   22.3040 N   0  0  0  0  0  0  0  0  0  0  0  0
   51.0060   57.6460   22.9530 H   0  0  0  0  0  0  0  0  0  0  0  0
   51.6090   55.8910   22.1830 C   0  0  0  0  0  0  0  0  0  0  0  0
   52.5370   55.7530   22.9510 O   0  0  0  0  0  0  0  0  0  0  0  0
  1  2  1  0  0  0  0
  3 21  1  0  0  0  0
  3  1  1  0  0  0  0
  4  3  2  0  0  0  0
  5  8  2  0  0  0  0
  6  1  1  0  0  0  0
  6  5  1  0  0  0  0
  7  6  1  0  0  0  0
  9  5  1  0  0  0  0
 10  9  1  0  0  0  0
 12 17  1  0  0  0  0
 12 11  1  0  0  0  0
 13 12  2  0  0  0  0
 14 15  2  0  0  0  0
 14 13  1  0  0  0  0
 15 16  1  0  0  0  0
 16 10  1  0  0  0  0
 16 17  2  0  0  0  0
 18 15  1  0  0  0  0
 19 18  1  0  0  0  0
 20 18  1  0  0  0  0
 21 22  1  0  0  0  0
 23 22  1  6  0  0  0
 23 33  1  0  0  0  0
 24 23  1  0  0  0  0
 25 24  1  0  0  0  0
 25 30  2  0  0  0  0
 26 25  1  0  0  0  0
 27 26  2  0  0  0  0
 27 28  1  0  0  0  0
 28 29  2  0  0  0  0
 29 30  1  0  0  0  0
 30 31  1  0  0  0  0
 31 32  1  0  0  0  0
 33 31  1  0  0  0  0
 33 34  2  0  0  0  0
M  END
>  <MODEL>
1

>  <REMARK>
  Name = ZINC14280293
                            x       y       z     vdW  Elec       q    Type
                         _______ _______ _______ _____ _____    ______ ____

>  <TORSDO>
F 8

>  <minimizedAffinity>
-10.363194411306065

$$$$
ZINC14280293
 OpenBabel10211215473D

 34 36  0  0  1  0  0  0  0  0999 V2000
   51.2740   51.3280   21.7250 N   0  0  0  0  0  0  0  0  0  0  0  0
   52.0400   50.9990   22.2200 H   0  0  0  0  0  0  0  0  0  0  0  0
   51.0410   52.6520   21.6460 C   0  0  0  0  0  0  0  0  0  0  0  0
   50.0810   53.0630   21.0290 O   0  0  0  0  0  0  0  0  0  0  0  0
   50.8810   49.5790   20.1580 C   0  0  0  0  0  0  0  0  0  0  0  0
   50.4070   50.4250   21.0940 N   0  0  0  0  0  0  0  0  0  0  0  0
   49.4670   50.4090   21.3310 H   0  0  0  0  0  0  0  0  0  0  0  0
   52.0570   49.6000   19.8610 O   0  0  0  0  0  0  0  0  0  0  0  0
   49.9500   48.6090   19.4770 C   0  0  0  0  0  0  0  0  0  0  0  0
   49.4720   49.1820   18.2600 O   0  0  0  0  0  0  0  0  0  0  0  0
   45.0930   47.2410   19.1990 C   0  0  0  0  0  0  0  0  0  0  0  0
   45.9610   48.2610   18.5080 C   0  0  0  0  0  0  0  0  0  0  0  0
   45.3880   49.2070   17.6770 C   0  0  0  0  0  0  0  0  0  0  0  0
   46.1810   50.1430   17.0410 C   0  0  0  0  0  0  0  0  0  0  0  0
   47.5490   50.1370   17.2340 C   0  0  0  0  0  0  0  0  0  0  0  0
   48.1260   49.1900   18.0670 C   0  0  0  0  0  0  0  0  0  0  0  0
   47.3290   48.2480   18.7010 C   0  0  0  0  0  0  0  0  0  0  0  0
   48.4130   51.1580   16.5410 C   0  0  0  0  0  0  0  0  0  0  0  0
   47.6760   52.4970   16.4840 C   0  0  0  0  0  0  0  0  0  0  0  0
   48.7200   50.6850   15.1180 C   0  0  0  0  0  0  0  0  0  0  0  0
   51.9720   53.6230   22.3250 C   0  0  0  0  0  0  0  0  0  0  0  0
   51.2780   54.9790   22.4700 C   0  0  0  0  0  0  0  0  0  0  0  0
   51.9790   56.0080   21.5810 C   0  0  2  0  0  0  0  0  0  0  0  0
   51.3330   57.3840   21.7780 C   0  0  0  0  0  0  0  0  0  0  0  0
   49.9640   57.3930   21.1490 C   0  0  0  0  0  0  0  0  0  0  0  0
   48.9530   58.1520   21.7070 C   0  0  0  0  0  0  0  0  0  0  0  0
   47.7080   58.1940   21.1090 C   0  0  0  0  0  0  0  0  0  0  0  0
   47.4700   57.4800   19.9490 C   0  0  0  0  0  0  0  0  0  0  0  0
   48.4740   56.7130   19.3910 C   0  0  0  0  0  0  0  0  0  0  0  0
   49.7210   56.6530   19.9990 C   0  0  0  0  0  0  0  0  0  0  0  0
   50.7370   55.8720   19.4420 N   0  0  0  0  0  0  0  0  0  0  0  0
   50.6350   55.5260   18.5410 H   0  0  0  0  0  0  0  0  0  0  0  0
   51.8510   55.5930   20.1380 C   0  0  0  0  0  0  0  0  0  0  0  0
   52.7620   54.9970   19.6030 O   0  0  0  0  0  0  0  0  0  0  0  0
  1  2  1  0  0  0  0
  3  1  1  0  0  0  0
  3 21  1  0  0  0  0
  4  3  2  0  0  0  0
  5  6  1  0  0  0  0
  6  7  1  0  0  0  0
  6  1  1  0  0  0  0
  8  5  2  0  0  0  0
  9  5  1  0  0  0  0
 10  9  1  0  0  0  0
 12 17  1  0  0  0  0
 12 11  1  0  0  0  0
 13 12  2  0  0  0  0
 14 15  2  0  0  0  0
 14 13  1  0  0  0  0
 15 16  1  0  0  0  0
 16 10  1  0  0  0  0
 16 17  2  0  0  0  0
 18 15  1  0  0  0  0
 19 18  1  0  0  0  0
 20 18  1  0  0  0  0
 21 22  1  0  0  0  0
 23 24  1  0  0  0  0
 23 22  1  6  0  0  0
 25 26  1  0  0  0  0
 25 24  1  0  0  0  0
 27 26  2  0  0  0  0
 28 27  1  0  0  0  0
 29 28  2  0  0  0  0
 29 30  1  0  0  0  0
 30 25  2  0  0  0  0
 31 30  1  0  0  0  0
 31 33  1  0  0  0  0
 32 31  1  0  0  0  0
 33 23  1  0  0  0  0
 34 33  2  0  0  0  0
M  END
>  <MODEL>
2

>  <REMARK>
  Name = ZINC14280293
                            x       y       z     vdW  Elec       q    Type
                         _______ _______ _______ _____ _____    ______ ____

>  <TORSDO>
F 8

>  <minimizedAffinity>
-10.218830335941323

$$$$
ZINC14280293
 OpenBabel10211215473D

 34 36  0  0  1  0  0  0  0  0999 V2000
   50.9790   51.2530   17.4380 N   0  0  0  0  0  0  0  0  0  0  0  0
   50.3160   51.7630   17.9300 H   0  0  0  0  0  0  0  0  0  0  0  0
   52.2900   51.4420   17.6820 C   0  0  0  0  0  0  0  0  0  0  0  0
   53.1200   50.8050   17.0670 O   0  0  0  0  0  0  0  0  0  0  0  0
   49.4490   50.5360   15.7610 C   0  0  0  0  0  0  0  0  0  0  0  0
   50.5730   50.3210   16.4740 N   0  0  0  0  0  0  0  0  0  0  0  0
   51.1000   49.5220   16.3190 H   0  0  0  0  0  0  0  0  0  0  0  0
   48.7890   51.5350   15.9540 O   0  0  0  0  0  0  0  0  0  0  0  0
   49.0110   49.5340   14.7240 C   0  0  0  0  0  0  0  0  0  0  0  0
   48.3700   48.4320   15.3680 O   0  0  0  0  0  0  0  0  0  0  0  0
   44.7440   48.1040   12.1170 C   0  0  0  0  0  0  0  0  0  0  0  0
   45.2450   48.0840   13.5380 C   0  0  0  0  0  0  0  0  0  0  0  0
   44.3580   47.8810   14.5810 C   0  0  0  0  0  0  0  0  0  0  0  0
   44.8130   47.8630   15.8850 C   0  0  0  0  0  0  0  0  0  0  0  0
   46.1560   48.0480   16.1520 C   0  0  0  0  0  0  0  0  0  0  0  0
   47.0470   48.2500   15.1090 C   0  0  0  0  0  0  0  0  0  0  0  0
   46.5870   48.2740   13.8000 C   0  0  0  0  0  0  0  0  0  0  0  0
   46.6520   48.0270   17.5740 C   0  0  0  0  0  0  0  0  0  0  0  0
   45.6120   47.3500   18.4680 C   0  0  0  0  0  0  0  0  0  0  0  0
   46.8810   49.4610   18.0550 C   0  0  0  0  0  0  0  0  0  0  0  0
   52.7280   52.4450   18.7200 C   0  0  0  0  0  0  0  0  0  0  0  0
   51.6070   53.4590   18.9540 C   0  0  0  0  0  0  0  0  0  0  0  0
   50.7270   52.9880   20.1130 C   0  0  2  0  0  0  0  0  0  0  0  0
   49.4840   53.8790   20.2110 C   0  0  0  0  0  0  0  0  0  0  0  0
   49.8770   55.2390   20.7250 C   0  0  0  0  0  0  0  0  0  0  0  0
   49.1950   56.3620   20.2980 C   0  0  0  0  0  0  0  0  0  0  0  0
   49.5270   57.6070   20.7990 C   0  0  0  0  0  0  0  0  0  0  0  0
   50.5410   57.7320   21.7310 C   0  0  0  0  0  0  0  0  0  0  0  0
   51.2320   56.6140   22.1560 C   0  0  0  0  0  0  0  0  0  0  0  0
   50.9140   55.3640   21.6410 C   0  0  0  0  0  0  0  0  0  0  0  0
   51.6170   54.2320   22.0620 N   0  0  0  0  0  0  0  0  0  0  0  0
   52.1900   54.2880   22.8420 H   0  0  0  0  0  0  0  0  0  0  0  0
   51.5070   53.0690   21.3990 C   0  0  0  0  0  0  0  0  0  0  0  0
   52.0470   52.0750   21.8370 O   0  0  0  0  0  0  0  0  0  0  0  0
  1  3  1  0  0  0  0
  1  2  1  0  0  0  0
  3 21  1  0  0  0  0
  4  3  2  0  0  0  0
  5  8  2  0  0  0  0
  5  6  1  0  0  0  0
  6  1  1  0  0  0  0
  7  6  1  0  0  0  0
  9 10  1  0  0  0  0
  9  5  1  0  0  0  0
 11 12  1  0  0  0  0
 12 17  2  0  0  0  0
 12 13  1  0  0  0  0
 13 14  2  0  0  0  0
 14 15  1  0  0  0  0
 15 18  1  0  0  0  0
 16 10  1  0  0  0  0
 16 15  2  0  0  0  0
 17 16  1  0  0  0  0
 18 20  1  0  0  0  0
 18 19  1  0  0  0  0
 21 22  1  0  0  0  0
 23 22  1  1  0  0  0
 23 24  1  0  0  0  0
 23 33  1  0  0  0  0
 24 25  1  0  0  0  0
 25 30  1  0  0  0  0
 26 25  2  0  0  0  0
 26 27  1  0  0  0  0
 27 28  2  0  0  0  0
 28 29  1  0  0  0  0
 30 31  1  0  0  0  0
 30 29  2  0  0  0  0
 31 32  1  0  0  0  0
 33 34  2  0  0  0  0
 33 31  1  0  0  0  0
M  END
>  <MODEL>
3

>  <REMARK>
  Name = ZINC14280293
                            x       y       z     vdW  Elec       q    Type
                         _______ _______ _______ _____ _____    ______ ____

>  <TORSDO>
F 8

>  <minimizedAffinity>
-9.8205158267624473

$$$$
ZINC14280293
 OpenBabel10211215473D

 34 36  0  0  1  0  0  0  0  0999 V2000
   51.3250   51.6310   22.0550 N   0  0  0  0  0  0  0  0  0  0  0  0
   52.1140   51.3640   22.5520 H   0  0  0  0  0  0  0  0  0  0  0  0
   51.0540   52.9380   21.8730 C   0  0  0  0  0  0  0  0  0  0  0  0
   50.0660   53.2720   21.2530 O   0  0  0  0  0  0  0  0  0  0  0  0
   50.8820   49.8710   20.5130 C   0  0  0  0  0  0  0  0  0  0  0  0
   50.4660   50.6570   21.5260 N   0  0  0  0  0  0  0  0  0  0  0  0
   49.5740   50.5490   21.8900 H   0  0  0  0  0  0  0  0  0  0  0  0
   51.9980   50.0070   20.0580 O   0  0  0  0  0  0  0  0  0  0  0  0
   49.9580   48.8250   19.9430 C   0  0  0  0  0  0  0  0  0  0  0  0
   49.8740   48.9850   18.5270 O   0  0  0  0  0  0  0  0  0  0  0  0
   48.6900   53.5690   17.3420 C   0  0  0  0  0  0  0  0  0  0  0  0
   48.3400   52.1090   17.4670 C   0  0  0  0  0  0  0  0  0  0  0  0
   47.0800   51.6670   17.1060 C   0  0  0  0  0  0  0  0  0  0  0  0
   46.7550   50.3290   17.2220 C   0  0  0  0  0  0  0  0  0  0  0  0
   47.6880   49.4280   17.6970 C   0  0  0  0  0  0  0  0  0  0  0  0
   48.9530   49.8680   18.0590 C   0  0  0  0  0  0  0  0  0  0  0  0
   49.2750   51.2140   17.9480 C   0  0  0  0  0  0  0  0  0  0  0  0
   47.3340   47.9690   17.8220 C   0  0  0  0  0  0  0  0  0  0  0  0
   47.0280   47.3980   16.4360 C   0  0  0  0  0  0  0  0  0  0  0  0
   46.1030   47.8180   18.7180 C   0  0  0  0  0  0  0  0  0  0  0  0
   51.9760   53.9850   22.4420 C   0  0  0  0  0  0  0  0  0  0  0  0
   51.1980   55.2830   22.6670 C   0  0  0  0  0  0  0  0  0  0  0  0
   51.8940   56.4300   21.9320 C   0  0  2  0  0  0  0  0  0  0  0  0
   51.0320   57.6940   22.0150 C   0  0  0  0  0  0  0  0  0  0  0  0
   49.8150   57.5310   21.1420 C   0  0  0  0  0  0  0  0  0  0  0  0
   48.6200   58.1220   21.5070 C   0  0  0  0  0  0  0  0  0  0  0  0
   47.5130   58.0090   20.6870 C   0  0  0  0  0  0  0  0  0  0  0  0
   47.5980   57.3080   19.4980 C   0  0  0  0  0  0  0  0  0  0  0  0
   48.7870   56.7100   19.1310 C   0  0  0  0  0  0  0  0  0  0  0  0
   49.8970   56.8050   19.9610 C   0  0  0  0  0  0  0  0  0  0  0  0
   51.0990   56.1930   19.5980 N   0  0  0  0  0  0  0  0  0  0  0  0
   51.2160   55.8680   18.6910 H   0  0  0  0  0  0  0  0  0  0  0  0
   52.0950   56.0500   20.4880 C   0  0  0  0  0  0  0  0  0  0  0  0
   53.1650   55.6060   20.1270 O   0  0  0  0  0  0  0  0  0  0  0  0
  1  2  1  0  0  0  0
  3  1  1  0  0  0  0
  3 21  1  0  0  0  0
  4  3  2  0  0  0  0
  5  6  1  0  0  0  0
  6  7  1  0  0  0  0
  6  1  1  0  0  0  0
  8  5  2  0  0  0  0
  9  5  1  0  0  0  0
 10  9  1  0  0  0  0
 11 12  1  0  0  0  0
 12 17  2  0  0  0  0
 13 14  2  0  0  0  0
 13 12  1  0  0  0  0
 14 15  1  0  0  0  0
 15 18  1  0  0  0  0
 15 16  2  0  0  0  0
 16 10  1  0  0  0  0
 17 16  1  0  0  0  0
 18 20  1  0  0  0  0
 19 18  1  0  0  0  0
 21 22  1  0  0  0  0
 23 24  1  0  0  0  0
 23 22  1  6  0  0  0
 25 26  1  0  0  0  0
 25 24  1  0  0  0  0
 27 26  2  0  0  0  0
 28 27  1  0  0  0  0
 29 28  2  0  0  0  0
 29 30  1  0  0  0  0
 30 25  2  0  0  0  0
 31 30  1  0  0  0  0
 31 33  1  0  0  0  0
 32 31  1  0  0  0  0
 33 23  1  0  0  0  0
 34 33  2  0  0  0  0
M  END
>  <MODEL>
4

>  <REMARK>
  Name = ZINC14280293
                            x       y       z     vdW  Elec       q    Type
                         _______ _______ _______ _____ _____    ______ ____

>  <TORSDO>
F 8

>  <minimizedAffinity>
-9.8046496438354769

$$$$
ZINC14280293
 OpenBabel10211215473D

 34 36  0  0  1  0  0  0  0  0999 V2000
   50.8930   51.3500   17.7060 N   0  0  0  0  0  0  0  0  0  0  0  0
   51.1980   52.1780   17.3040 H   0  0  0  0  0  0  0  0  0  0  0  0
   50.7510   51.2640   19.0430 C   0  0  0  0  0  0  0  0  0  0  0  0
   50.3710   50.2280   19.5470 O   0  0  0  0  0  0  0  0  0  0  0  0
   49.5730   50.2990   16.0260 C   0  0  0  0  0  0  0  0  0  0  0  0
   50.6000   50.2440   16.8980 N   0  0  0  0  0  0  0  0  0  0  0  0
   51.1360   49.4380   16.9650 H   0  0  0  0  0  0  0  0  0  0  0  0
   48.9020   51.3060   15.9420 O   0  0  0  0  0  0  0  0  0  0  0  0
   49.2570   49.1090   15.1570 C   0  0  0  0  0  0  0  0  0  0  0  0
   48.4600   48.1810   15.8930 O   0  0  0  0  0  0  0  0  0  0  0  0
   45.0050   48.2690   12.4460 C   0  0  0  0  0  0  0  0  0  0  0  0
   45.4260   48.1280   13.8870 C   0  0  0  0  0  0  0  0  0  0  0  0
   44.4740   47.9070   14.8660 C   0  0  0  0  0  0  0  0  0  0  0  0
   44.8560   47.7780   16.1880 C   0  0  0  0  0  0  0  0  0  0  0  0
   46.1900   47.8690   16.5350 C   0  0  0  0  0  0  0  0  0  0  0  0
   47.1460   48.0900   15.5550 C   0  0  0  0  0  0  0  0  0  0  0  0
   46.7600   48.2250   14.2290 C   0  0  0  0  0  0  0  0  0  0  0  0
   46.6050   47.7280   17.9760 C   0  0  0  0  0  0  0  0  0  0  0  0
   45.3820   47.3870   18.8290 C   0  0  0  0  0  0  0  0  0  0  0  0
   47.2150   49.0440   18.4620 C   0  0  0  0  0  0  0  0  0  0  0  0
   51.0660   52.4540   19.9140 C   0  0  0  0  0  0  0  0  0  0  0  0
   49.9260   53.4690   19.8220 C   0  0  0  0  0  0  0  0  0  0  0  0
   50.2130   54.4580   18.6910 C   0  0  2  0  0  0  0  0  0  0  0  0
   50.9830   55.6620   19.2420 C   0  0  0  0  0  0  0  0  0  0  0  0
   50.0650   56.5030   20.0900 C   0  0  0  0  0  0  0  0  0  0  0  0
   50.5640   57.1820   21.1850 C   0  0  0  0  0  0  0  0  0  0  0  0
   49.7320   57.9860   21.9400 C   0  0  0  0  0  0  0  0  0  0  0  0
   48.3980   58.1170   21.6010 C   0  0  0  0  0  0  0  0  0  0  0  0
   47.8910   57.4360   20.5130 C   0  0  0  0  0  0  0  0  0  0  0  0
   48.7200   56.6110   19.7620 C   0  0  0  0  0  0  0  0  0  0  0  0
   48.2080   55.9130   18.6660 N   0  0  0  0  0  0  0  0  0  0  0  0
   47.3340   56.1450   18.3150 H   0  0  0  0  0  0  0  0  0  0  0  0
   48.9120   54.9240   18.0900 C   0  0  0  0  0  0  0  0  0  0  0  0
   48.4950   54.3970   17.0810 O   0  0  0  0  0  0  0  0  0  0  0  0
  1  3  1  0  0  0  0
  2  1  1  0  0  0  0
  3  4  2  0  0  0  0
  3 21  1  0  0  0  0
  5  6  1  0  0  0  0
  6  7  1  0  0  0  0
  6  1  1  0  0  0  0
  8  5  2  0  0  0  0
  9 10  1  0  0  0  0
  9  5  1  0  0  0  0
 11 12  1  0  0  0  0
 12 17  2  0  0  0  0
 12 13  1  0  0  0  0
 13 14  2  0  0  0  0
 14 15  1  0  0  0  0
 15 18  1  0  0  0  0
 16 10  1  0  0  0  0
 16 15  2  0  0  0  0
 17 16  1  0  0  0  0
 18 20  1  0  0  0  0
 18 19  1  0  0  0  0
 22 21  1  0  0  0  0
 23 24  1  0  0  0  0
 23 22  1  1  0  0  0
 24 25  1  0  0  0  0
 25 26  1  0  0  0  0
 26 27  2  0  0  0  0
 28 27  1  0  0  0  0
 29 28  2  0  0  0  0
 30 25  2  0  0  0  0
 30 29  1  0  0  0  0
 31 30  1  0  0  0  0
 32 31  1  0  0  0  0
 33 31  1  0  0  0  0
 33 23  1  0  0  0  0
 34 33  2  0  0  0  0
M  END
>  <MODEL>
5

>  <REMARK>
  Name = ZINC14280293
                            x       y       z     vdW  Elec       q    Type
                         _______ _______ _______ _____ _____    ______ ____

>  <TORSDO>
F 8

>  <minimizedAffinity>
-9.529458005632927

$$$$
ZINC14280293
 OpenBabel10211215473D

 34 36  0  0  1  0  0  0  0  0999 V2000
   49.8850   51.7120   17.2790 N   0  0  0  0  0  0  0  0  0  0  0  0
   50.4100   50.9660   16.9510 H   0  0  0  0  0  0  0  0  0  0  0  0
   48.5500   51.7260   17.1030 C   0  0  0  0  0  0  0  0  0  0  0  0
   47.8940   52.6600   17.5130 O   0  0  0  0  0  0  0  0  0  0  0  0
   51.7660   52.6270   18.4170 C   0  0  0  0  0  0  0  0  0  0  0  0
   50.5170   52.7780   17.9350 N   0  0  0  0  0  0  0  0  0  0  0  0
   50.0540   53.6240   18.0420 H   0  0  0  0  0  0  0  0  0  0  0  0
   52.3450   51.5690   18.2830 O   0  0  0  0  0  0  0  0  0  0  0  0
   52.4450   53.7720   19.1230 C   0  0  0  0  0  0  0  0  0  0  0  0
   51.8640   55.0050   18.6980 O   0  0  0  0  0  0  0  0  0  0  0  0
   53.8780   57.9230   22.0520 C   0  0  0  0  0  0  0  0  0  0  0  0
   52.6770   57.4230   21.2930 C   0  0  0  0  0  0  0  0  0  0  0  0
   51.4250   57.9510   21.5540 C   0  0  0  0  0  0  0  0  0  0  0  0
   50.3210   57.4930   20.8600 C   0  0  0  0  0  0  0  0  0  0  0  0
   50.4650   56.5060   19.9030 C   0  0  0  0  0  0  0  0  0  0  0  0
   51.7190   55.9760   19.6390 C   0  0  0  0  0  0  0  0  0  0  0  0
   52.8250   56.4330   20.3410 C   0  0  0  0  0  0  0  0  0  0  0  0
   49.2610   56.0080   19.1470 C   0  0  0  0  0  0  0  0  0  0  0  0
   48.3160   57.1770   18.8640 C   0  0  0  0  0  0  0  0  0  0  0  0
   48.5320   54.9550   19.9840 C   0  0  0  0  0  0  0  0  0  0  0  0
   47.8700   50.5800   16.3980 C   0  0  0  0  0  0  0  0  0  0  0  0
   46.8110   49.9700   17.3180 C   0  0  0  0  0  0  0  0  0  0  0  0
   47.0780   48.4720   17.4800 C   0  0  2  0  0  0  0  0  0  0  0  0
   47.4020   47.8560   16.1160 C   0  0  0  0  0  0  0  0  0  0  0  0
   46.1520   47.8040   15.2760 C   0  0  0  0  0  0  0  0  0  0  0  0
   46.2350   47.9520   13.9040 C   0  0  0  0  0  0  0  0  0  0  0  0
   45.0950   47.8640   13.1280 C   0  0  0  0  0  0  0  0  0  0  0  0
   43.8690   47.6240   13.7200 C   0  0  0  0  0  0  0  0  0  0  0  0
   43.7780   47.4820   15.0910 C   0  0  0  0  0  0  0  0  0  0  0  0
   44.9190   47.5890   15.8760 C   0  0  0  0  0  0  0  0  0  0  0  0
   44.8290   47.4540   17.2640 N   0  0  0  0  0  0  0  0  0  0  0  0
   44.0170   47.1030   17.6600 H   0  0  0  0  0  0  0  0  0  0  0  0
   45.8560   47.8060   18.0570 C   0  0  0  0  0  0  0  0  0  0  0  0
   45.7960   47.5900   19.2490 O   0  0  0  0  0  0  0  0  0  0  0  0
  1  6  1  0  0  0  0
  2  1  1  0  0  0  0
  3  1  1  0  0  0  0
  3  4  2  0  0  0  0
  5  9  1  0  0  0  0
  6  7  1  0  0  0  0
  6  5  1  0  0  0  0
  8  5  2  0  0  0  0
 10  9  1  0  0  0  0
 10 16  1  0  0  0  0
 12 13  1  0  0  0  0
 12 11  1  0  0  0  0
 14 13  2  0  0  0  0
 15 14  1  0  0  0  0
 16 15  2  0  0  0  0
 16 17  1  0  0  0  0
 17 12  2  0  0  0  0
 18 15  1  0  0  0  0
 18 20  1  0  0  0  0
 19 18  1  0  0  0  0
 21  3  1  0  0  0  0
 21 22  1  0  0  0  0
 23 22  1  6  0  0  0
 23 33  1  0  0  0  0
 24 23  1  0  0  0  0
 25 30  1  0  0  0  0
 25 24  1  0  0  0  0
 26 25  2  0  0  0  0
 27 28  2  0  0  0  0
 27 26  1  0  0  0  0
 28 29  1  0  0  0  0
 29 30  2  0  0  0  0
 30 31  1  0  0  0  0
 31 32  1  0  0  0  0
 31 33  1  0  0  0  0
 33 34  2  0  0  0  0
M  END
>  <MODEL>
6

>  <REMARK>
  Name = ZINC14280293
                            x       y       z     vdW  Elec       q    Type
                         _______ _______ _______ _____ _____    ______ ____

>  <TORSDO>
F 8

>  <minimizedAffinity>
-9.3585779082487299

$$$$
ZINC14280293
 OpenBabel10211215473D

 34 36  0  0  1  0  0  0  0  0999 V2000
   49.7320   55.1800   20.5700 N   0  0  0  0  0  0  0  0  0  0  0  0
   50.0950   55.1750   21.4700 H   0  0  0  0  0  0  0  0  0  0  0  0
   50.1860   54.3000   19.6560 C   0  0  0  0  0  0  0  0  0  0  0  0
   49.7330   54.3070   18.5310 O   0  0  0  0  0  0  0  0  0  0  0  0
   48.6250   57.2620   20.8990 C   0  0  0  0  0  0  0  0  0  0  0  0
   48.7370   56.1030   20.2210 N   0  0  0  0  0  0  0  0  0  0  0  0
   48.1290   55.9070   19.4910 H   0  0  0  0  0  0  0  0  0  0  0  0
   49.3850   57.5070   21.8130 O   0  0  0  0  0  0  0  0  0  0  0  0
   47.5550   58.2550   20.5250 C   0  0  0  0  0  0  0  0  0  0  0  0
   48.0240   59.0810   19.4580 O   0  0  0  0  0  0  0  0  0  0  0  0
   46.9320   56.8840   15.2380 C   0  0  0  0  0  0  0  0  0  0  0  0
   46.7480   58.0100   16.2240 C   0  0  0  0  0  0  0  0  0  0  0  0
   45.8500   59.0260   15.9520 C   0  0  0  0  0  0  0  0  0  0  0  0
   45.6810   60.0610   16.8530 C   0  0  0  0  0  0  0  0  0  0  0  0
   46.4070   60.0820   18.0270 C   0  0  0  0  0  0  0  0  0  0  0  0
   47.3070   59.0630   18.3030 C   0  0  0  0  0  0  0  0  0  0  0  0
   47.4810   58.0280   17.3940 C   0  0  0  0  0  0  0  0  0  0  0  0
   46.2210   61.2090   19.0090 C   0  0  0  0  0  0  0  0  0  0  0  0
   44.7280   61.4990   19.1770 C   0  0  0  0  0  0  0  0  0  0  0  0
   46.9270   62.4610   18.4880 C   0  0  0  0  0  0  0  0  0  0  0  0
   51.2560   53.3080   20.0320 C   0  0  0  0  0  0  0  0  0  0  0  0
   50.6540   51.9020   20.0800 C   0  0  0  0  0  0  0  0  0  0  0  0
   51.3040   51.0320   19.0020 C   0  0  2  0  0  0  0  0  0  0  0  0
   50.5030   51.1400   17.7000 C   0  0  0  0  0  0  0  0  0  0  0  0
   49.1890   50.4180   17.8550 C   0  0  0  0  0  0  0  0  0  0  0  0
   48.0660   50.8800   17.1970 C   0  0  0  0  0  0  0  0  0  0  0  0
   46.8700   50.1960   17.3050 C   0  0  0  0  0  0  0  0  0  0  0  0
   46.7940   49.0450   18.0680 C   0  0  0  0  0  0  0  0  0  0  0  0
   47.9110   48.5830   18.7340 C   0  0  0  0  0  0  0  0  0  0  0  0
   49.1110   49.2770   18.6440 C   0  0  0  0  0  0  0  0  0  0  0  0
   50.2410   48.8170   19.3240 N   0  0  0  0  0  0  0  0  0  0  0  0
   50.2430   47.9230   19.6990 H   0  0  0  0  0  0  0  0  0  0  0  0
   51.3260   49.5970   19.4630 C   0  0  0  0  0  0  0  0  0  0  0  0
   52.3310   49.1450   19.9690 O   0  0  0  0  0  0  0  0  0  0  0  0
  1  2  1  0  0  0  0
  3 21  1  0  0  0  0
  3  1  1  0  0  0  0
  4  3  2  0  0  0  0
  5  8  2  0  0  0  0
  6  1  1  0  0  0  0
  6  5  1  0  0  0  0
  7  6  1  0  0  0  0
  9  5  1  0  0  0  0
 10  9  1  0  0  0  0
 11 12  1  0  0  0  0
 12 17  1  0  0  0  0
 13 12  2  0  0  0  0
 13 14  1  0  0  0  0
 14 15  2  0  0  0  0
 15 16  1  0  0  0  0
 15 18  1  0  0  0  0
 16 10  1  0  0  0  0
 17 16  2  0  0  0  0
 18 19  1  0  0  0  0
 20 18  1  0  0  0  0
 21 22  1  0  0  0  0
 23 33  1  0  0  0  0
 23 22  1  1  0  0  0
 24 25  1  0  0  0  0
 24 23  1  0  0  0  0
 25 30  2  0  0  0  0
 26 27  2  0  0  0  0
 26 25  1  0  0  0  0
 27 28  1  0  0  0  0
 28 29  2  0  0  0  0
 30 29  1  0  0  0  0
 30 31  1  0  0  0  0
 31 33  1  0  0  0  0
 31 32  1  0  0  0  0
 33 34  2  0  0  0  0
M  END
>  <MODEL>
7

>  <REMARK>
  Name = ZINC14280293
                            x       y       z     vdW  Elec       q    Type
                         _______ _______ _______ _____ _____    ______ ____

>  <TORSDO>
F 8

>  <minimizedAffinity>
-9.3004983048342815

$$$$
ZINC14280293
 OpenBabel10211215473D

 34 36  0  0  1  0  0  0  0  0999 V2000
   50.1060   56.5300   19.7530 N   0  0  0  0  0  0  0  0  0  0  0  0
   50.7490   57.2220   19.9700 H   0  0  0  0  0  0  0  0  0  0  0  0
   48.8110   56.6830   20.0930 C   0  0  0  0  0  0  0  0  0  0  0  0
   48.0070   55.8160   19.8230 O   0  0  0  0  0  0  0  0  0  0  0  0
   51.3340   54.4910   19.7090 C   0  0  0  0  0  0  0  0  0  0  0  0
   50.5230   55.3690   19.0870 N   0  0  0  0  0  0  0  0  0  0  0  0
   50.2280   55.1980   18.1790 H   0  0  0  0  0  0  0  0  0  0  0  0
   51.7040   54.7050   20.8440 O   0  0  0  0  0  0  0  0  0  0  0  0
   51.7840   53.2430   18.9930 C   0  0  0  0  0  0  0  0  0  0  0  0
   50.7330   52.7750   18.1470 O   0  0  0  0  0  0  0  0  0  0  0  0
   50.7060   48.7770   20.9480 C   0  0  0  0  0  0  0  0  0  0  0  0
   50.1620   49.5820   19.7960 C   0  0  0  0  0  0  0  0  0  0  0  0
   49.1210   49.0820   19.0340 C   0  0  0  0  0  0  0  0  0  0  0  0
   48.6210   49.8170   17.9760 C   0  0  0  0  0  0  0  0  0  0  0  0
   49.1590   51.0530   17.6760 C   0  0  0  0  0  0  0  0  0  0  0  0
   50.2020   51.5580   18.4390 C   0  0  0  0  0  0  0  0  0  0  0  0
   50.7070   50.8160   19.4980 C   0  0  0  0  0  0  0  0  0  0  0  0
   48.6130   51.8540   16.5230 C   0  0  0  0  0  0  0  0  0  0  0  0
   47.3370   52.5770   16.9620 C   0  0  0  0  0  0  0  0  0  0  0  0
   48.2920   50.9170   15.3580 C   0  0  0  0  0  0  0  0  0  0  0  0
   48.3620   57.9310   20.8100 C   0  0  0  0  0  0  0  0  0  0  0  0
   47.2520   58.6090   20.0040 C   0  0  0  0  0  0  0  0  0  0  0  0
   47.8540   59.2720   18.7640 C   0  0  2  0  0  0  0  0  0  0  0  0
   47.9530   60.7850   18.9850 C   0  0  0  0  0  0  0  0  0  0  0  0
   46.5740   61.3900   18.9540 C   0  0  0  0  0  0  0  0  0  0  0  0
   46.2840   62.4890   19.7410 C   0  0  0  0  0  0  0  0  0  0  0  0
   45.0320   63.0700   19.6840 C   0  0  0  0  0  0  0  0  0  0  0  0
   44.0660   62.5580   18.8370 C   0  0  0  0  0  0  0  0  0  0  0  0
   44.3470   61.4560   18.0540 C   0  0  0  0  0  0  0  0  0  0  0  0
   45.5980   60.8570   18.1220 C   0  0  0  0  0  0  0  0  0  0  0  0
   45.8830   59.7360   17.3370 N   0  0  0  0  0  0  0  0  0  0  0  0
   45.2840   59.4930   16.6140 H   0  0  0  0  0  0  0  0  0  0  0  0
   46.9770   58.9930   17.5710 C   0  0  0  0  0  0  0  0  0  0  0  0
   47.2590   58.0840   16.8190 O   0  0  0  0  0  0  0  0  0  0  0  0
  1  2  1  0  0  0  0
  1  3  1  0  0  0  0
  3 21  1  0  0  0  0
  4  3  2  0  0  0  0
  5  8  2  0  0  0  0
  6  5  1  0  0  0  0
  6  1  1  0  0  0  0
  7  6  1  0  0  0  0
  9  5  1  0  0  0  0
 10 16  1  0  0  0  0
 10  9  1  0  0  0  0
 12 11  1  0  0  0  0
 13 12  2  0  0  0  0
 14 13  1  0  0  0  0
 15 14  2  0  0  0  0
 15 16  1  0  0  0  0
 16 17  2  0  0  0  0
 17 12  1  0  0  0  0
 18 19  1  0  0  0  0
 18 15  1  0  0  0  0
 20 18  1  0  0  0  0
 22 21  1  0  0  0  0
 23 24  1  0  0  0  0
 23 22  1  1  0  0  0
 25 24  1  0  0  0  0
 25 26  2  0  0  0  0
 27 26  1  0  0  0  0
 28 27  2  0  0  0  0
 29 30  2  0  0  0  0
 29 28  1  0  0  0  0
 30 25  1  0  0  0  0
 31 33  1  0  0  0  0
 31 30  1  0  0  0  0
 32 31  1  0  0  0  0
 33 23  1  0  0  0  0
 34 33  2  0  0  0  0
M  END
>  <MODEL>
8

>  <REMARK>
  Name = ZINC14280293
                            x       y       z     vdW  Elec       q    Type
                         _______ _______ _______ _____ _____    ______ ____

>  <TORSDO>
F 8

>  <minimizedAffinity>
-9.206849927979663

$$$$
ZINC14280293
 OpenBabel10211215473D

 34 36  0  0  1  0  0  0  0  0999 V2000
   49.1240   52.0110   16.9380 N   0  0  0  0  0  0  0  0  0  0  0  0
   48.8710   52.4100   16.0920 H   0  0  0  0  0  0  0  0  0  0  0  0
   48.5560   50.8570   17.3360 C   0  0  0  0  0  0  0  0  0  0  0  0
   48.8720   50.3580   18.3960 O   0  0  0  0  0  0  0  0  0  0  0  0
   49.7690   53.7700   18.4080 C   0  0  0  0  0  0  0  0  0  0  0  0
   50.0820   52.6360   17.7490 N   0  0  0  0  0  0  0  0  0  0  0  0
   50.9680   52.2540   17.8350 H   0  0  0  0  0  0  0  0  0  0  0  0
   48.6600   54.2490   18.2990 O   0  0  0  0  0  0  0  0  0  0  0  0
   50.7990   54.4430   19.2790 C   0  0  0  0  0  0  0  0  0  0  0  0
   50.7910   55.8490   19.0250 O   0  0  0  0  0  0  0  0  0  0  0  0
   46.8990   58.6200   20.0280 C   0  0  0  0  0  0  0  0  0  0  0  0
   48.2120   57.9970   20.4290 C   0  0  0  0  0  0  0  0  0  0  0  0
   48.7250   58.2220   21.6940 C   0  0  0  0  0  0  0  0  0  0  0  0
   49.9280   57.6530   22.0650 C   0  0  0  0  0  0  0  0  0  0  0  0
   50.6230   56.8580   21.1740 C   0  0  0  0  0  0  0  0  0  0  0  0
   50.1100   56.6310   19.9060 C   0  0  0  0  0  0  0  0  0  0  0  0
   48.9040   57.2070   19.5320 C   0  0  0  0  0  0  0  0  0  0  0  0
   51.9340   56.2380   21.5790 C   0  0  0  0  0  0  0  0  0  0  0  0
   51.7500   55.4590   22.8830 C   0  0  0  0  0  0  0  0  0  0  0  0
   52.9760   57.3390   21.7870 C   0  0  0  0  0  0  0  0  0  0  0  0
   47.5260   50.1840   16.4650 C   0  0  0  0  0  0  0  0  0  0  0  0
   46.4380   49.5650   17.3460 C   0  0  0  0  0  0  0  0  0  0  0  0
   46.6370   48.0500   17.4130 C   0  0  2  0  0  0  0  0  0  0  0  0
   47.0240   47.5190   16.0290 C   0  0  0  0  0  0  0  0  0  0  0  0
   45.8300   47.5800   15.1130 C   0  0  0  0  0  0  0  0  0  0  0  0
   46.0060   47.8220   13.7640 C   0  0  0  0  0  0  0  0  0  0  0  0
   44.9150   47.8380   12.9150 C   0  0  0  0  0  0  0  0  0  0  0  0
   43.6450   47.6080   13.4120 C   0  0  0  0  0  0  0  0  0  0  0  0
   43.4620   47.3730   14.7600 C   0  0  0  0  0  0  0  0  0  0  0  0
   44.5530   47.3750   15.6190 C   0  0  0  0  0  0  0  0  0  0  0  0
   44.3700   47.1460   16.9860 N   0  0  0  0  0  0  0  0  0  0  0  0
   43.5210   46.8020   17.3040 H   0  0  0  0  0  0  0  0  0  0  0  0
   45.3560   47.3960   17.8630 C   0  0  0  0  0  0  0  0  0  0  0  0
   45.2120   47.0990   19.0300 O   0  0  0  0  0  0  0  0  0  0  0  0
  1  3  1  0  0  0  0
  1  6  1  0  0  0  0
  2  1  1  0  0  0  0
  3  4  2  0  0  0  0
  5  9  1  0  0  0  0
  6  7  1  0  0  0  0
  6  5  1  0  0  0  0
  8  5  2  0  0  0  0
 10  9  1  0  0  0  0
 10 16  1  0  0  0  0
 11 12  1  0  0  0  0
 12 13  2  0  0  0  0
 13 14  1  0  0  0  0
 15 18  1  0  0  0  0
 15 14  2  0  0  0  0
 16 15  1  0  0  0  0
 17 16  2  0  0  0  0
 17 12  1  0  0  0  0
 18 20  1  0  0  0  0
 18 19  1  0  0  0  0
 21  3  1  0  0  0  0
 21 22  1  0  0  0  0
 23 22  1  6  0  0  0
 23 33  1  0  0  0  0
 24 23  1  0  0  0  0
 25 30  1  0  0  0  0
 25 24  1  0  0  0  0
 26 25  2  0  0  0  0
 27 28  2  0  0  0  0
 27 26  1  0  0  0  0
 28 29  1  0  0  0  0
 29 30  2  0  0  0  0
 30 31  1  0  0  0  0
 31 32  1  0  0  0  0
 31 33  1  0  0  0  0
 33 34  2  0  0  0  0
M  END
>  <MODEL>
9

>  <REMARK>
  Name = ZINC14280293
                            x       y       z     vdW  Elec       q    Type
                         _______ _______ _______ _____ _____    ______ ____

>  <TORSDO>
F 8

>  <minimizedAffinity>
-9.1844712177759984

$$$$
ZINC60021509
 OpenBabel10211215493D

 34 35  0  0  1  0  0  0  0  0999 V2000
   51.5020   52.6450   19.6820 N   0  0  0  0  0  0  0  0  0  0  0  0
   50.8500   51.9290   19.7240 H   0  0  0  0  0  0  0  0  0  0  0  0
   52.3530   52.7200   18.6390 C   0  0  0  0  0  0  0  0  0  0  0  0
   52.2960   51.8000   17.6570 N   0  0  0  0  0  0  0  0  0  0  0  0
   52.9090   51.8540   16.9060 H   0  0  0  0  0  0  0  0  0  0  0  0
   53.1720   53.6170   18.5860 O   0  0  0  0  0  0  0  0  0  0  0  0
   51.3540   50.7650   17.7190 N   0  0  0  0  0  0  0  0  0  0  0  0
   51.6290   49.8740   17.9840 H   0  0  0  0  0  0  0  0  0  0  0  0
   50.0640   51.0100   17.4120 C   0  0  0  0  0  0  0  0  0  0  0  0
   49.7200   52.1270   17.0800 O   0  0  0  0  0  0  0  0  0  0  0  0
   49.0710   49.9210   17.4770 C   0  0  0  0  0  0  0  0  0  0  0  0
   48.5490   49.5230   18.7110 C   0  0  0  0  0  0  0  0  0  0  0  0
   47.6210   48.5050   18.7710 C   0  0  0  0  0  0  0  0  0  0  0  0
   47.2040   47.8730   17.6080 C   0  0  0  0  0  0  0  0  0  0  0  0
   47.7200   48.2650   16.3730 C   0  0  0  0  0  0  0  0  0  0  0  0
   48.6460   49.2880   16.3060 C   0  0  0  0  0  0  0  0  0  0  0  0
   47.3090   47.6440   15.2360 O   0  0  0  0  0  0  0  0  0  0  0  0
   46.5380   48.4190   14.3150 C   0  0  0  0  0  0  0  0  0  0  0  0
   46.2900   46.8700   17.6720 O   0  0  0  0  0  0  0  0  0  0  0  0
   44.9380   47.2410   17.9450 C   0  0  0  0  0  0  0  0  0  0  0  0
   44.7180   48.6990   17.5360 C   0  0  0  0  0  0  0  0  0  0  0  0
   44.6560   47.0830   19.4400 C   0  0  0  0  0  0  0  0  0  0  0  0
   51.4150   52.9540   22.1070 C   0  0  0  0  0  0  0  0  0  0  0  0
   51.5640   53.6460   20.7510 C   0  0  2  0  0  0  0  0  0  0  0  0
   50.4490   54.6430   20.5700 C   0  0  0  0  0  0  0  0  0  0  0  0
   49.2570   54.2500   19.9910 C   0  0  0  0  0  0  0  0  0  0  0  0
   48.2340   55.1640   19.8260 C   0  0  0  0  0  0  0  0  0  0  0  0
   48.4030   56.4730   20.2380 C   0  0  0  0  0  0  0  0  0  0  0  0
   49.5950   56.8660   20.8180 C   0  0  0  0  0  0  0  0  0  0  0  0
   50.6160   55.9500   20.9880 C   0  0  0  0  0  0  0  0  0  0  0  0
   51.9130   56.3780   21.6240 C   0  0  0  0  0  0  0  0  0  0  0  0
   52.0620   55.7350   22.8590 F   0  0  0  0  0  0  0  0  0  0  0  0
   51.9020   57.7630   21.8190 F   0  0  0  0  0  0  0  0  0  0  0  0
   52.9800   56.0330   20.7880 F   0  0  0  0  0  0  0  0  0  0  0  0
  1  2  1  0  0  0  0
  3  1  1  0  0  0  0
  4  7  1  0  0  0  0
  4  3  1  0  0  0  0
  5  4  1  0  0  0  0
  6  3  2  0  0  0  0
  7  8  1  0  0  0  0
  9 11  1  0  0  0  0
  9  7  1  0  0  0  0
 10  9  2  0  0  0  0
 11 12  2  0  0  0  0
 12 13  1  0  0  0  0
 14 19  1  0  0  0  0
 14 13  2  0  0  0  0
 15 14  1  0  0  0  0
 16 15  2  0  0  0  0
 16 11  1  0  0  0  0
 17 15  1  0  0  0  0
 18 17  1  0  0  0  0
 19 20  1  0  0  0  0
 20 22  1  0  0  0  0
 21 20  1  0  0  0  0
 24  1  1  1  0  0  0
 24 23  1  0  0  0  0
 25 24  1  0  0  0  0
 25 30  2  0  0  0  0
 26 25  1  0  0  0  0
 27 26  2  0  0  0  0
 27 28  1  0  0  0  0
 28 29  2  0  0  0  0
 29 30  1  0  0  0  0
 30 31  1  0  0  0  0
 31 33  1  0  0  0  0
 31 32  1  0  0  0  0
 34 31  1  0  0  0  0
M  END
>  <MODEL>
1

>  <REMARK>
  Name = ZINC60021509
                            x       y       z     vdW  Elec       q    Type
                         _______ _______ _______ _____ _____    ______ ____

>  <TORSDO>
F 8

>  <minimizedAffinity>
-10.18708534644086

$$$$
ZINC60021509
 OpenBabel10211215493D

 34 35  0  0  1  0  0  0  0  0999 V2000
   50.9390   52.9950   19.4890 N   0  0  0  0  0  0  0  0  0  0  0  0
   50.0970   52.6870   19.1220 H   0  0  0  0  0  0  0  0  0  0  0  0
   52.0970   52.6890   18.8690 C   0  0  0  0  0  0  0  0  0  0  0  0
   52.0810   51.9560   17.7390 N   0  0  0  0  0  0  0  0  0  0  0  0
   52.9140   51.7360   17.2930 H   0  0  0  0  0  0  0  0  0  0  0  0
   53.1540   53.0740   19.3300 O   0  0  0  0  0  0  0  0  0  0  0  0
   50.8630   51.5110   17.2080 N   0  0  0  0  0  0  0  0  0  0  0  0
   50.4640   51.9750   16.4560 H   0  0  0  0  0  0  0  0  0  0  0  0
   50.2460   50.4380   17.7440 C   0  0  0  0  0  0  0  0  0  0  0  0
   50.7460   49.8580   18.6870 O   0  0  0  0  0  0  0  0  0  0  0  0
   48.9640   49.9700   17.1850 C   0  0  0  0  0  0  0  0  0  0  0  0
   48.7930   49.8830   15.8010 C   0  0  0  0  0  0  0  0  0  0  0  0
   47.5940   49.4450   15.2810 C   0  0  0  0  0  0  0  0  0  0  0  0
   46.5540   49.0910   16.1280 C   0  0  0  0  0  0  0  0  0  0  0  0
   46.7170   49.1750   17.5110 C   0  0  0  0  0  0  0  0  0  0  0  0
   47.9180   49.6080   18.0390 C   0  0  0  0  0  0  0  0  0  0  0  0
   45.6960   48.8270   18.3390 O   0  0  0  0  0  0  0  0  0  0  0  0
   45.7560   47.5290   18.9330 C   0  0  0  0  0  0  0  0  0  0  0  0
   45.3740   48.6610   15.6100 O   0  0  0  0  0  0  0  0  0  0  0  0
   45.4340   47.6080   14.6470 C   0  0  0  0  0  0  0  0  0  0  0  0
   44.2270   47.7050   13.7110 C   0  0  0  0  0  0  0  0  0  0  0  0
   45.4150   46.2580   15.3650 C   0  0  0  0  0  0  0  0  0  0  0  0
   50.5620   52.9090   21.9050 C   0  0  0  0  0  0  0  0  0  0  0  0
   50.9560   53.7910   20.7190 C   0  0  2  0  0  0  0  0  0  0  0  0
   49.9770   54.9300   20.5930 C   0  0  0  0  0  0  0  0  0  0  0  0
   48.7830   54.7430   19.9230 C   0  0  0  0  0  0  0  0  0  0  0  0
   47.8840   55.7870   19.8070 C   0  0  0  0  0  0  0  0  0  0  0  0
   48.1800   57.0190   20.3610 C   0  0  0  0  0  0  0  0  0  0  0  0
   49.3750   57.2050   21.0320 C   0  0  0  0  0  0  0  0  0  0  0  0
   50.2710   56.1600   21.1520 C   0  0  0  0  0  0  0  0  0  0  0  0
   51.5710   56.3620   21.8870 C   0  0  0  0  0  0  0  0  0  0  0  0
   52.6190   55.8070   21.1440 F   0  0  0  0  0  0  0  0  0  0  0  0
   51.5020   55.7350   23.1360 F   0  0  0  0  0  0  0  0  0  0  0  0
   51.7990   57.7310   22.0640 F   0  0  0  0  0  0  0  0  0  0  0  0
  2  1  1  0  0  0  0
  3  6  2  0  0  0  0
  3  1  1  0  0  0  0
  4  3  1  0  0  0  0
  5  4  1  0  0  0  0
  7  4  1  0  0  0  0
  7  9  1  0  0  0  0
  8  7  1  0  0  0  0
  9 10  2  0  0  0  0
 11  9  1  0  0  0  0
 11 16  2  0  0  0  0
 12 11  1  0  0  0  0
 13 12  2  0  0  0  0
 13 14  1  0  0  0  0
 14 15  2  0  0  0  0
 15 16  1  0  0  0  0
 15 17  1  0  0  0  0
 17 18  1  0  0  0  0
 19 14  1  0  0  0  0
 20 22  1  0  0  0  0
 20 19  1  0  0  0  0
 21 20  1  0  0  0  0
 24  1  1  6  0  0  0
 24 23  1  0  0  0  0
 25 24  1  0  0  0  0
 25 30  2  0  0  0  0
 26 25  1  0  0  0  0
 27 26  2  0  0  0  0
 27 28  1  0  0  0  0
 28 29  2  0  0  0  0
 29 30  1  0  0  0  0
 30 31  1  0  0  0  0
 31 34  1  0  0  0  0
 31 33  1  0  0  0  0
 32 31  1  0  0  0  0
M  END
>  <MODEL>
2

>  <REMARK>
  Name = ZINC60021509
                            x       y       z     vdW  Elec       q    Type
                         _______ _______ _______ _____ _____    ______ ____

>  <TORSDO>
F 8

>  <minimizedAffinity>
-10.069678116935556

$$$$
ZINC60021509
 OpenBabel10211215493D

 34 35  0  0  1  0  0  0  0  0999 V2000
   50.8920   52.7080   19.8260 N   0  0  0  0  0  0  0  0  0  0  0  0
   50.2910   53.2940   19.3400 H   0  0  0  0  0  0  0  0  0  0  0  0
   51.3430   53.0670   21.0450 C   0  0  0  0  0  0  0  0  0  0  0  0
   50.9590   54.2400   21.5870 N   0  0  0  0  0  0  0  0  0  0  0  0
   51.2840   54.4970   22.4640 H   0  0  0  0  0  0  0  0  0  0  0  0
   52.0970   52.3330   21.6550 O   0  0  0  0  0  0  0  0  0  0  0  0
   50.0910   55.0850   20.8840 N   0  0  0  0  0  0  0  0  0  0  0  0
   49.5900   54.7450   20.1270 H   0  0  0  0  0  0  0  0  0  0  0  0
   49.9520   56.3720   21.2610 C   0  0  0  0  0  0  0  0  0  0  0  0
   50.5800   56.7980   22.2110 O   0  0  0  0  0  0  0  0  0  0  0  0
   49.0380   57.2630   20.5220 C   0  0  0  0  0  0  0  0  0  0  0  0
   48.3770   58.2980   21.1880 C   0  0  0  0  0  0  0  0  0  0  0  0
   47.5240   59.1300   20.4960 C   0  0  0  0  0  0  0  0  0  0  0  0
   47.3170   58.9410   19.1370 C   0  0  0  0  0  0  0  0  0  0  0  0
   47.9730   57.9100   18.4640 C   0  0  0  0  0  0  0  0  0  0  0  0
   48.8330   57.0770   19.1520 C   0  0  0  0  0  0  0  0  0  0  0  0
   47.7690   57.7290   17.1330 O   0  0  0  0  0  0  0  0  0  0  0  0
   48.1580   56.4690   16.5820 C   0  0  0  0  0  0  0  0  0  0  0  0
   46.4740   59.7630   18.4590 O   0  0  0  0  0  0  0  0  0  0  0  0
   46.1510   61.0110   19.0740 C   0  0  0  0  0  0  0  0  0  0  0  0
   44.6390   61.2360   19.0080 C   0  0  0  0  0  0  0  0  0  0  0  0
   46.8670   62.1440   18.3380 C   0  0  0  0  0  0  0  0  0  0  0  0
   52.1650   51.7010   17.9960 C   0  0  0  0  0  0  0  0  0  0  0  0
   51.3100   51.4340   19.2370 C   0  0  2  0  0  0  0  0  0  0  0  0
   50.0920   50.6380   18.8460 C   0  0  0  0  0  0  0  0  0  0  0  0
   49.2300   51.1240   17.8800 C   0  0  0  0  0  0  0  0  0  0  0  0
   48.1130   50.3940   17.5200 C   0  0  0  0  0  0  0  0  0  0  0  0
   47.8570   49.1780   18.1260 C   0  0  0  0  0  0  0  0  0  0  0  0
   48.7190   48.6920   19.0910 C   0  0  0  0  0  0  0  0  0  0  0  0
   49.8390   49.4190   19.4470 C   0  0  0  0  0  0  0  0  0  0  0  0
   50.7820   48.8870   20.4960 C   0  0  0  0  0  0  0  0  0  0  0  0
   50.6770   49.6650   21.6550 F   0  0  0  0  0  0  0  0  0  0  0  0
   52.0940   48.9420   20.0140 F   0  0  0  0  0  0  0  0  0  0  0  0
   50.4490   47.5610   20.7920 F   0  0  0  0  0  0  0  0  0  0  0  0
  1  3  1  0  0  0  0
  2  1  1  0  0  0  0
  3  4  1  0  0  0  0
  3  6  2  0  0  0  0
  4  5  1  0  0  0  0
  7  9  1  0  0  0  0
  7  4  1  0  0  0  0
  8  7  1  0  0  0  0
  9 10  2  0  0  0  0
 11 12  1  0  0  0  0
 11  9  1  0  0  0  0
 13 12  2  0  0  0  0
 14 13  1  0  0  0  0
 15 14  2  0  0  0  0
 15 16  1  0  0  0  0
 16 11  2  0  0  0  0
 17 15  1  0  0  0  0
 18 17  1  0  0  0  0
 19 20  1  0  0  0  0
 19 14  1  0  0  0  0
 21 20  1  0  0  0  0
 22 20  1  0  0  0  0
 24 23  1  6  0  0  0
 24  1  1  0  0  0  0
 25 24  1  0  0  0  0
 25 30  2  0  0  0  0
 26 25  1  0  0  0  0
 27 26  2  0  0  0  0
 27 28  1  0  0  0  0
 28 29  2  0  0  0  0
 29 30  1  0  0  0  0
 30 31  1  0  0  0  0
 31 34  1  0  0  0  0
 31 32  1  0  0  0  0
 33 31  1  0  0  0  0
M  END
>  <MODEL>
3

>  <REMARK>
  Name = ZINC60021509
                            x       y       z     vdW  Elec       q    Type
                         _______ _______ _______ _____ _____    ______ ____

>  <TORSDO>
F 8

>  <minimizedAffinity>
-9.4852967726487698

$$$$
ZINC60021509
 OpenBabel10211215493D

 34 35  0  0  1  0  0  0  0  0999 V2000
   50.6040   53.4250   19.6970 N   0  0  0  0  0  0  0  0  0  0  0  0
   50.0930   53.8940   19.0190 H   0  0  0  0  0  0  0  0  0  0  0  0
   50.7670   53.9730   20.9170 C   0  0  0  0  0  0  0  0  0  0  0  0
   50.2200   55.1730   21.1950 N   0  0  0  0  0  0  0  0  0  0  0  0
   50.3370   55.5670   22.0740 H   0  0  0  0  0  0  0  0  0  0  0  0
   51.4080   53.3860   21.7670 O   0  0  0  0  0  0  0  0  0  0  0  0
   49.4820   55.8500   20.2150 N   0  0  0  0  0  0  0  0  0  0  0  0
   49.3300   55.4370   19.3510 H   0  0  0  0  0  0  0  0  0  0  0  0
   48.9820   57.0750   20.4750 C   0  0  0  0  0  0  0  0  0  0  0  0
   49.1720   57.5910   21.5590 O   0  0  0  0  0  0  0  0  0  0  0  0
   48.2040   57.7880   19.4440 C   0  0  0  0  0  0  0  0  0  0  0  0
   48.1870   57.3160   18.1290 C   0  0  0  0  0  0  0  0  0  0  0  0
   47.4600   57.9830   17.1670 C   0  0  0  0  0  0  0  0  0  0  0  0
   46.7450   59.1250   17.5000 C   0  0  0  0  0  0  0  0  0  0  0  0
   46.7580   59.6020   18.8110 C   0  0  0  0  0  0  0  0  0  0  0  0
   47.4800   58.9350   19.7810 C   0  0  0  0  0  0  0  0  0  0  0  0
   46.0560   60.7210   19.1340 O   0  0  0  0  0  0  0  0  0  0  0  0
   46.8090   61.9070   19.3930 C   0  0  0  0  0  0  0  0  0  0  0  0
   46.0320   59.7800   16.5480 O   0  0  0  0  0  0  0  0  0  0  0  0
   45.1130   59.0030   15.7780 C   0  0  0  0  0  0  0  0  0  0  0  0
   45.4860   59.0930   14.2970 C   0  0  0  0  0  0  0  0  0  0  0  0
   43.6950   59.5420   15.9790 C   0  0  0  0  0  0  0  0  0  0  0  0
   52.2780   52.2880   18.3220 C   0  0  0  0  0  0  0  0  0  0  0  0
   51.2000   52.1210   19.3940 C   0  0  2  0  0  0  0  0  0  0  0  0
   50.1310   51.1850   18.8910 C   0  0  0  0  0  0  0  0  0  0  0  0
   49.2340   51.6140   17.9300 C   0  0  0  0  0  0  0  0  0  0  0  0
   48.2540   50.7560   17.4680 C   0  0  0  0  0  0  0  0  0  0  0  0
   48.1700   49.4690   17.9660 C   0  0  0  0  0  0  0  0  0  0  0  0
   49.0680   49.0400   18.9260 C   0  0  0  0  0  0  0  0  0  0  0  0
   50.0510   49.8960   19.3850 C   0  0  0  0  0  0  0  0  0  0  0  0
   51.0320   49.4270   20.4280 C   0  0  0  0  0  0  0  0  0  0  0  0
   51.0590   50.3400   21.4890 F   0  0  0  0  0  0  0  0  0  0  0  0
   52.3080   49.3350   19.8600 F   0  0  0  0  0  0  0  0  0  0  0  0
   50.6420   48.1710   20.9040 F   0  0  0  0  0  0  0  0  0  0  0  0
  1  3  1  0  0  0  0
  2  1  1  0  0  0  0
  3  4  1  0  0  0  0
  3  6  2  0  0  0  0
  4  5  1  0  0  0  0
  7  9  1  0  0  0  0
  7  4  1  0  0  0  0
  8  7  1  0  0  0  0
  9 10  2  0  0  0  0
 11 16  1  0  0  0  0
 11  9  1  0  0  0  0
 12 11  2  0  0  0  0
 13 14  2  0  0  0  0
 13 12  1  0  0  0  0
 14 15  1  0  0  0  0
 15 17  1  0  0  0  0
 15 16  2  0  0  0  0
 17 18  1  0  0  0  0
 19 14  1  0  0  0  0
 20 22  1  0  0  0  0
 20 19  1  0  0  0  0
 21 20  1  0  0  0  0
 24 23  1  6  0  0  0
 24  1  1  0  0  0  0
 25 30  2  0  0  0  0
 25 24  1  0  0  0  0
 26 25  1  0  0  0  0
 27 26  2  0  0  0  0
 27 28  1  0  0  0  0
 28 29  2  0  0  0  0
 29 30  1  0  0  0  0
 30 31  1  0  0  0  0
 31 34  1  0  0  0  0
 31 32  1  0  0  0  0
 33 31  1  0  0  0  0
M  END
>  <MODEL>
4

>  <REMARK>
  Name = ZINC60021509
                            x       y       z     vdW  Elec       q    Type
                         _______ _______ _______ _____ _____    ______ ____

>  <TORSDO>
F 8

>  <minimizedAffinity>
-9.0991918275167158

$$$$
ZINC60021509
 OpenBabel10211215493D

 34 35  0  0  1  0  0  0  0  0999 V2000
   51.0470   51.9380   19.9450 N   0  0  0  0  0  0  0  0  0  0  0  0
   50.2470   51.8190   19.4120 H   0  0  0  0  0  0  0  0  0  0  0  0
   52.0430   51.0320   19.8770 C   0  0  0  0  0  0  0  0  0  0  0  0
   51.9250   49.9610   19.0680 N   0  0  0  0  0  0  0  0  0  0  0  0
   52.6420   49.3090   19.0190 H   0  0  0  0  0  0  0  0  0  0  0  0
   53.0480   51.1810   20.5460 O   0  0  0  0  0  0  0  0  0  0  0  0
   50.7670   49.7890   18.2980 N   0  0  0  0  0  0  0  0  0  0  0  0
   50.7270   50.1450   17.3970 H   0  0  0  0  0  0  0  0  0  0  0  0
   49.7100   49.1270   18.8090 C   0  0  0  0  0  0  0  0  0  0  0  0
   49.7600   48.6810   19.9390 O   0  0  0  0  0  0  0  0  0  0  0  0
   48.4900   48.9460   17.9990 C   0  0  0  0  0  0  0  0  0  0  0  0
   47.2840   48.6060   18.6150 C   0  0  0  0  0  0  0  0  0  0  0  0
   46.1460   48.4360   17.8570 C   0  0  0  0  0  0  0  0  0  0  0  0
   46.1950   48.6020   16.4790 C   0  0  0  0  0  0  0  0  0  0  0  0
   47.3960   48.9420   15.8570 C   0  0  0  0  0  0  0  0  0  0  0  0
   48.5390   49.1180   16.6120 C   0  0  0  0  0  0  0  0  0  0  0  0
   47.4400   49.1040   14.5080 O   0  0  0  0  0  0  0  0  0  0  0  0
   48.5660   49.8040   13.9750 C   0  0  0  0  0  0  0  0  0  0  0  0
   45.0700   48.4330   15.7360 O   0  0  0  0  0  0  0  0  0  0  0  0
   44.5950   47.0960   15.5750 C   0  0  0  0  0  0  0  0  0  0  0  0
   45.5200   46.3370   14.6210 C   0  0  0  0  0  0  0  0  0  0  0  0
   43.1790   47.1230   14.9970 C   0  0  0  0  0  0  0  0  0  0  0  0
   50.9380   52.6750   22.2750 C   0  0  0  0  0  0  0  0  0  0  0  0
   51.1760   53.1020   20.8260 C   0  0  2  0  0  0  0  0  0  0  0  0
   50.1580   54.1420   20.4350 C   0  0  0  0  0  0  0  0  0  0  0  0
   49.0100   53.7660   19.7620 C   0  0  0  0  0  0  0  0  0  0  0  0
   48.0750   54.7190   19.4040 C   0  0  0  0  0  0  0  0  0  0  0  0
   48.2880   56.0480   19.7170 C   0  0  0  0  0  0  0  0  0  0  0  0
   49.4360   56.4240   20.3910 C   0  0  0  0  0  0  0  0  0  0  0  0
   50.3680   55.4700   20.7530 C   0  0  0  0  0  0  0  0  0  0  0  0
   51.6160   55.8790   21.4910 C   0  0  0  0  0  0  0  0  0  0  0  0
   51.9190   57.2130   21.1930 F   0  0  0  0  0  0  0  0  0  0  0  0
   52.6800   55.0610   21.0970 F   0  0  0  0  0  0  0  0  0  0  0  0
   51.4100   55.7450   22.8680 F   0  0  0  0  0  0  0  0  0  0  0  0
  2  1  1  0  0  0  0
  3  1  1  0  0  0  0
  3  6  2  0  0  0  0
  4  3  1  0  0  0  0
  5  4  1  0  0  0  0
  7  9  1  0  0  0  0
  7  4  1  0  0  0  0
  8  7  1  0  0  0  0
  9 10  2  0  0  0  0
 11 12  1  0  0  0  0
 11  9  1  0  0  0  0
 13 12  2  0  0  0  0
 14 13  1  0  0  0  0
 15 14  2  0  0  0  0
 15 16  1  0  0  0  0
 16 11  2  0  0  0  0
 17 15  1  0  0  0  0
 18 17  1  0  0  0  0
 19 14  1  0  0  0  0
 20 19  1  0  0  0  0
 21 20  1  0  0  0  0
 22 20  1  0  0  0  0
 24  1  1  1  0  0  0
 24 23  1  0  0  0  0
 25 30  1  0  0  0  0
 25 24  1  0  0  0  0
 26 25  2  0  0  0  0
 27 28  2  0  0  0  0
 27 26  1  0  0  0  0
 28 29  1  0  0  0  0
 29 30  2  0  0  0  0
 30 31  1  0  0  0  0
 31 34  1  0  0  0  0
 32 31  1  0  0  0  0
 33 31  1  0  0  0  0
M  END
>  <MODEL>
5

>  <REMARK>
  Name = ZINC60021509
                            x       y       z     vdW  Elec       q    Type
                         _______ _______ _______ _____ _____    ______ ____

>  <TORSDO>
F 8

>  <minimizedAffinity>
-8.6832744872199683

$$$$
ZINC60021509
 OpenBabel10211215493D

 34 35  0  0  1  0  0  0  0  0999 V2000
   50.7600   54.1550   19.5760 N   0  0  0  0  0  0  0  0  0  0  0  0
   50.2570   54.6410   18.9040 H   0  0  0  0  0  0  0  0  0  0  0  0
   51.0900   54.7560   20.7360 C   0  0  0  0  0  0  0  0  0  0  0  0
   50.7220   56.0320   20.9620 N   0  0  0  0  0  0  0  0  0  0  0  0
   50.9600   56.4640   21.7980 H   0  0  0  0  0  0  0  0  0  0  0  0
   51.7210   54.1470   21.5780 O   0  0  0  0  0  0  0  0  0  0  0  0
   49.9950   56.7340   19.9910 N   0  0  0  0  0  0  0  0  0  0  0  0
   50.3130   56.7630   19.0760 H   0  0  0  0  0  0  0  0  0  0  0  0
   48.8550   57.3670   20.3300 C   0  0  0  0  0  0  0  0  0  0  0  0
   48.4570   57.3300   21.4780 O   0  0  0  0  0  0  0  0  0  0  0  0
   48.0900   58.1070   19.3080 C   0  0  0  0  0  0  0  0  0  0  0  0
   47.4190   59.2840   19.6510 C   0  0  0  0  0  0  0  0  0  0  0  0
   46.7050   59.9730   18.6950 C   0  0  0  0  0  0  0  0  0  0  0  0
   46.6480   59.5010   17.3910 C   0  0  0  0  0  0  0  0  0  0  0  0
   47.3150   58.3270   17.0420 C   0  0  0  0  0  0  0  0  0  0  0  0
   48.0370   57.6340   17.9940 C   0  0  0  0  0  0  0  0  0  0  0  0
   47.2590   57.8670   15.7630 O   0  0  0  0  0  0  0  0  0  0  0  0
   47.4920   56.4720   15.5650 C   0  0  0  0  0  0  0  0  0  0  0  0
   45.9420   60.1840   16.4530 O   0  0  0  0  0  0  0  0  0  0  0  0
   44.5250   60.2430   16.6240 C   0  0  0  0  0  0  0  0  0  0  0  0
   43.8570   59.2220   15.7010 C   0  0  0  0  0  0  0  0  0  0  0  0
   44.0270   61.6470   16.2760 C   0  0  0  0  0  0  0  0  0  0  0  0
   52.4210   52.7460   18.4620 C   0  0  0  0  0  0  0  0  0  0  0  0
   51.1610   52.7670   19.3300 C   0  0  2  0  0  0  0  0  0  0  0  0
   50.0490   52.0410   18.6170 C   0  0  0  0  0  0  0  0  0  0  0  0
   49.2930   52.7000   17.6650 C   0  0  0  0  0  0  0  0  0  0  0  0
   48.2730   52.0340   17.0110 C   0  0  0  0  0  0  0  0  0  0  0  0
   48.0080   50.7110   17.3100 C   0  0  0  0  0  0  0  0  0  0  0  0
   48.7650   50.0520   18.2610 C   0  0  0  0  0  0  0  0  0  0  0  0
   49.7880   50.7160   18.9120 C   0  0  0  0  0  0  0  0  0  0  0  0
   50.6150   49.9970   19.9460 C   0  0  0  0  0  0  0  0  0  0  0  0
   50.7940   50.8260   21.0600 F   0  0  0  0  0  0  0  0  0  0  0  0
   51.8620   49.6720   19.4010 F   0  0  0  0  0  0  0  0  0  0  0  0
   49.9580   48.8260   20.3370 F   0  0  0  0  0  0  0  0  0  0  0  0
  1  3  1  0  0  0  0
  2  1  1  0  0  0  0
  3  4  1  0  0  0  0
  3  6  2  0  0  0  0
  4  5  1  0  0  0  0
  7  9  1  0  0  0  0
  7  4  1  0  0  0  0
  8  7  1  0  0  0  0
  9 10  2  0  0  0  0
 11 12  1  0  0  0  0
 11  9  1  0  0  0  0
 13 12  2  0  0  0  0
 14 13  1  0  0  0  0
 15 14  2  0  0  0  0
 15 16  1  0  0  0  0
 16 11  2  0  0  0  0
 17 15  1  0  0  0  0
 18 17  1  0  0  0  0
 19 20  1  0  0  0  0
 19 14  1  0  0  0  0
 21 20  1  0  0  0  0
 22 20  1  0  0  0  0
 24 23  1  6  0  0  0
 24  1  1  0  0  0  0
 25 30  1  0  0  0  0
 25 24  1  0  0  0  0
 26 25  2  0  0  0  0
 27 28  2  0  0  0  0
 27 26  1  0  0  0  0
 28 29  1  0  0  0  0
 29 30  2  0  0  0  0
 30 31  1  0  0  0  0
 31 34  1  0  0  0  0
 31 32  1  0  0  0  0
 33 31  1  0  0  0  0
M  END
>  <MODEL>
6

>  <REMARK>
  Name = ZINC60021509
                            x       y       z     vdW  Elec       q    Type
                         _______ _______ _______ _____ _____    ______ ____

>  <TORSDO>
F 8

>  <minimizedAffinity>
-8.660115512861303

$$$$
ZINC60021509
 OpenBabel10211215493D

 34 35  0  0  1  0  0  0  0  0999 V2000
   50.4820   53.8100   18.9380 N   0  0  0  0  0  0  0  0  0  0  0  0
   50.0810   53.9710   18.0700 H   0  0  0  0  0  0  0  0  0  0  0  0
   50.3620   54.7300   19.9160 C   0  0  0  0  0  0  0  0  0  0  0  0
   49.6830   55.8710   19.6870 N   0  0  0  0  0  0  0  0  0  0  0  0
   49.5960   56.5330   20.3910 H   0  0  0  0  0  0  0  0  0  0  0  0
   50.8650   54.5300   21.0040 O   0  0  0  0  0  0  0  0  0  0  0  0
   49.1030   56.1020   18.4320 N   0  0  0  0  0  0  0  0  0  0  0  0
   49.3320   55.5340   17.6810 H   0  0  0  0  0  0  0  0  0  0  0  0
   48.2270   57.1140   18.2710 C   0  0  0  0  0  0  0  0  0  0  0  0
   47.9410   57.8260   19.2130 O   0  0  0  0  0  0  0  0  0  0  0  0
   47.6160   57.3570   16.9500 C   0  0  0  0  0  0  0  0  0  0  0  0
   47.9250   56.5240   15.8720 C   0  0  0  0  0  0  0  0  0  0  0  0
   47.3540   56.7520   14.6390 C   0  0  0  0  0  0  0  0  0  0  0  0
   46.4720   57.8100   14.4640 C   0  0  0  0  0  0  0  0  0  0  0  0
   46.1590   58.6450   15.5350 C   0  0  0  0  0  0  0  0  0  0  0  0
   46.7240   58.4190   16.7750 C   0  0  0  0  0  0  0  0  0  0  0  0
   45.2940   59.6800   15.3610 O   0  0  0  0  0  0  0  0  0  0  0  0
   45.0200   60.4960   16.5020 C   0  0  0  0  0  0  0  0  0  0  0  0
   45.9120   58.0310   13.2460 O   0  0  0  0  0  0  0  0  0  0  0  0
   45.8040   56.9090   12.3680 C   0  0  0  0  0  0  0  0  0  0  0  0
   46.1650   57.3390   10.9450 C   0  0  0  0  0  0  0  0  0  0  0  0
   44.3690   56.3790   12.3920 C   0  0  0  0  0  0  0  0  0  0  0  0
   52.5290   52.5860   18.3930 C   0  0  0  0  0  0  0  0  0  0  0  0
   51.2210   52.5700   19.1870 C   0  0  2  0  0  0  0  0  0  0  0  0
   50.3850   51.3920   18.7540 C   0  0  0  0  0  0  0  0  0  0  0  0
   49.7330   51.4190   17.5360 C   0  0  0  0  0  0  0  0  0  0  0  0
   48.9670   50.3390   17.1380 C   0  0  0  0  0  0  0  0  0  0  0  0
   48.8520   49.2330   17.9590 C   0  0  0  0  0  0  0  0  0  0  0  0
   49.5060   49.2060   19.1770 C   0  0  0  0  0  0  0  0  0  0  0  0
   50.2760   50.2840   19.5730 C   0  0  0  0  0  0  0  0  0  0  0  0
   50.9910   50.2530   20.8980 C   0  0  0  0  0  0  0  0  0  0  0  0
   50.5700   49.1360   21.6300 F   0  0  0  0  0  0  0  0  0  0  0  0
   50.6960   51.4180   21.6150 F   0  0  0  0  0  0  0  0  0  0  0  0
   52.3710   50.1750   20.6820 F   0  0  0  0  0  0  0  0  0  0  0  0
  1 24  1  0  0  0  0
  1  3  1  0  0  0  0
  2  1  1  0  0  0  0
  3  6  2  0  0  0  0
  4  3  1  0  0  0  0
  4  5  1  0  0  0  0
  7  4  1  0  0  0  0
  8  7  1  0  0  0  0
  9  7  1  0  0  0  0
  9 10  2  0  0  0  0
 11  9  1  0  0  0  0
 12 11  2  0  0  0  0
 13 12  1  0  0  0  0
 14 13  2  0  0  0  0
 14 15  1  0  0  0  0
 15 16  2  0  0  0  0
 16 11  1  0  0  0  0
 17 15  1  0  0  0  0
 17 18  1  0  0  0  0
 19 14  1  0  0  0  0
 20 22  1  0  0  0  0
 20 19  1  0  0  0  0
 21 20  1  0  0  0  0
 24 23  1  6  0  0  0
 25 24  1  0  0  0  0
 25 30  2  0  0  0  0
 26 25  1  0  0  0  0
 27 26  2  0  0  0  0
 27 28  1  0  0  0  0
 28 29  2  0  0  0  0
 29 30  1  0  0  0  0
 30 31  1  0  0  0  0
 31 33  1  0  0  0  0
 31 32  1  0  0  0  0
 34 31  1  0  0  0  0
M  END
>  <MODEL>
7

>  <REMARK>
  Name = ZINC60021509
                            x       y       z     vdW  Elec       q    Type
                         _______ _______ _______ _____ _____    ______ ____

>  <TORSDO>
F 8

>  <minimizedAffinity>
-8.4475658725725822

$$$$
ZINC60021509
 OpenBabel10211215493D

 34 35  0  0  1  0  0  0  0  0999 V2000
   48.4580   49.1780   16.7960 N   0  0  0  0  0  0  0  0  0  0  0  0
   48.2030   49.9110   17.3770 H   0  0  0  0  0  0  0  0  0  0  0  0
   49.4080   49.3620   15.8570 C   0  0  0  0  0  0  0  0  0  0  0  0
   50.0040   50.5630   15.7290 N   0  0  0  0  0  0  0  0  0  0  0  0
   50.6880   50.6950   15.0530 H   0  0  0  0  0  0  0  0  0  0  0  0
   49.7270   48.4430   15.1270 O   0  0  0  0  0  0  0  0  0  0  0  0
   49.6350   51.6220   16.5700 N   0  0  0  0  0  0  0  0  0  0  0  0
   48.8470   52.1490   16.3680 H   0  0  0  0  0  0  0  0  0  0  0  0
   50.3760   51.9060   17.6590 C   0  0  0  0  0  0  0  0  0  0  0  0
   51.3650   51.2450   17.9110 O   0  0  0  0  0  0  0  0  0  0  0  0
   49.9890   53.0200   18.5450 C   0  0  0  0  0  0  0  0  0  0  0  0
   48.8310   53.7560   18.2780 C   0  0  0  0  0  0  0  0  0  0  0  0
   48.4700   54.7970   19.1060 C   0  0  0  0  0  0  0  0  0  0  0  0
   49.2550   55.1180   20.2060 C   0  0  0  0  0  0  0  0  0  0  0  0
   50.4110   54.3870   20.4780 C   0  0  0  0  0  0  0  0  0  0  0  0
   50.7760   53.3400   19.6550 C   0  0  0  0  0  0  0  0  0  0  0  0
   51.1770   54.7030   21.5560 O   0  0  0  0  0  0  0  0  0  0  0  0
   51.6070   53.6220   22.3860 C   0  0  0  0  0  0  0  0  0  0  0  0
   48.8950   56.1450   21.0180 O   0  0  0  0  0  0  0  0  0  0  0  0
   49.2520   57.4620   20.5950 C   0  0  0  0  0  0  0  0  0  0  0  0
   50.2530   58.0610   21.5860 C   0  0  0  0  0  0  0  0  0  0  0  0
   48.0000   58.3390   20.5430 C   0  0  0  0  0  0  0  0  0  0  0  0
   48.7870   46.7690   16.5250 C   0  0  0  0  0  0  0  0  0  0  0  0
   47.8090   47.8720   16.9350 C   0  0  2  0  0  0  0  0  0  0  0  0
   46.5920   47.8190   16.0490 C   0  0  0  0  0  0  0  0  0  0  0  0
   46.7390   47.7780   14.6750 C   0  0  0  0  0  0  0  0  0  0  0  0
   45.6230   47.7290   13.8610 C   0  0  0  0  0  0  0  0  0  0  0  0
   44.3590   47.7210   14.4210 C   0  0  0  0  0  0  0  0  0  0  0  0
   44.2120   47.7600   15.7950 C   0  0  0  0  0  0  0  0  0  0  0  0
   45.3280   47.8050   16.6090 C   0  0  0  0  0  0  0  0  0  0  0  0
   45.1680   47.8430   18.1070 C   0  0  0  0  0  0  0  0  0  0  0  0
   45.7050   46.6770   18.6640 F   0  0  0  0  0  0  0  0  0  0  0  0
   43.8090   47.9300   18.4280 F   0  0  0  0  0  0  0  0  0  0  0  0
   45.8400   48.9570   18.6200 F   0  0  0  0  0  0  0  0  0  0  0  0
  1 24  1  0  0  0  0
  1  2  1  0  0  0  0
  3  1  1  0  0  0  0
  4  3  1  0  0  0  0
  4  7  1  0  0  0  0
  5  4  1  0  0  0  0
  6  3  2  0  0  0  0
  7  9  1  0  0  0  0
  8  7  1  0  0  0  0
  9 10  2  0  0  0  0
  9 11  1  0  0  0  0
 11 16  1  0  0  0  0
 12 11  2  0  0  0  0
 12 13  1  0  0  0  0
 13 14  2  0  0  0  0
 14 15  1  0  0  0  0
 14 19  1  0  0  0  0
 15 17  1  0  0  0  0
 16 15  2  0  0  0  0
 17 18  1  0  0  0  0
 20 19  1  0  0  0  0
 20 21  1  0  0  0  0
 22 20  1  0  0  0  0
 23 24  1  0  0  0  0
 24 25  1  6  0  0  0
 25 30  1  0  0  0  0
 26 25  2  0  0  0  0
 27 28  2  0  0  0  0
 27 26  1  0  0  0  0
 28 29  1  0  0  0  0
 29 30  2  0  0  0  0
 30 31  1  0  0  0  0
 31 33  1  0  0  0  0
 31 34  1  0  0  0  0
 31 32  1  0  0  0  0
M  END
>  <MODEL>
8

>  <REMARK>
  Name = ZINC60021509
                            x       y       z     vdW  Elec       q    Type
                         _______ _______ _______ _____ _____    ______ ____

>  <TORSDO>
F 8

>  <minimizedAffinity>
-8.3510430060181449

$$$$
ZINC60021509
 OpenBabel10211215493D

 34 35  0  0  1  0  0  0  0  0999 V2000
   48.3580   56.6760   17.7990 N   0  0  0  0  0  0  0  0  0  0  0  0
   48.1200   57.5800   18.0580 H   0  0  0  0  0  0  0  0  0  0  0  0
   47.9730   56.1960   16.6000 C   0  0  0  0  0  0  0  0  0  0  0  0
   47.2610   56.9720   15.7610 N   0  0  0  0  0  0  0  0  0  0  0  0
   46.9850   56.6260   14.8970 H   0  0  0  0  0  0  0  0  0  0  0  0
   48.2710   55.0620   16.2750 O   0  0  0  0  0  0  0  0  0  0  0  0
   46.9180   58.2780   16.1350 N   0  0  0  0  0  0  0  0  0  0  0  0
   47.5760   58.8480   16.5620 H   0  0  0  0  0  0  0  0  0  0  0  0
   45.6740   58.7420   15.8990 C   0  0  0  0  0  0  0  0  0  0  0  0
   44.8500   58.0260   15.3640 O   0  0  0  0  0  0  0  0  0  0  0  0
   45.3130   60.1170   16.2930 C   0  0  0  0  0  0  0  0  0  0  0  0
   44.8480   61.0200   15.3340 C   0  0  0  0  0  0  0  0  0  0  0  0
   44.5110   62.3050   15.7020 C   0  0  0  0  0  0  0  0  0  0  0  0
   44.6330   62.7050   17.0260 C   0  0  0  0  0  0  0  0  0  0  0  0
   45.0960   61.8080   17.9890 C   0  0  0  0  0  0  0  0  0  0  0  0
   45.4310   60.5180   17.6260 C   0  0  0  0  0  0  0  0  0  0  0  0
   45.2140   62.2030   19.2850 O   0  0  0  0  0  0  0  0  0  0  0  0
   46.5220   62.5600   19.7380 C   0  0  0  0  0  0  0  0  0  0  0  0
   44.3010   63.9720   17.3840 O   0  0  0  0  0  0  0  0  0  0  0  0
   44.9070   65.0350   16.6460 C   0  0  0  0  0  0  0  0  0  0  0  0
   46.3620   65.1980   17.0890 C   0  0  0  0  0  0  0  0  0  0  0  0
   44.1460   66.3360   16.9060 C   0  0  0  0  0  0  0  0  0  0  0  0
   48.3300   54.5720   19.0480 C   0  0  0  0  0  0  0  0  0  0  0  0
   49.1320   55.8310   18.7120 C   0  0  2  0  0  0  0  0  0  0  0  0
   49.4220   56.5950   19.9790 C   0  0  0  0  0  0  0  0  0  0  0  0
   48.4290   57.3550   20.5690 C   0  0  0  0  0  0  0  0  0  0  0  0
   48.6940   58.0550   21.7310 C   0  0  0  0  0  0  0  0  0  0  0  0
   49.9510   57.9970   22.3020 C   0  0  0  0  0  0  0  0  0  0  0  0
   50.9440   57.2360   21.7120 C   0  0  0  0  0  0  0  0  0  0  0  0
   50.6770   56.5310   20.5530 C   0  0  0  0  0  0  0  0  0  0  0  0
   51.7570   55.6990   19.9130 C   0  0  0  0  0  0  0  0  0  0  0  0
   51.4260   54.3430   20.0190 F   0  0  0  0  0  0  0  0  0  0  0  0
   52.9740   55.9330   20.5630 F   0  0  0  0  0  0  0  0  0  0  0  0
   51.8760   56.0450   18.5630 F   0  0  0  0  0  0  0  0  0  0  0  0
  1  2  1  0  0  0  0
  3  1  1  0  0  0  0
  4  7  1  0  0  0  0
  4  3  1  0  0  0  0
  5  4  1  0  0  0  0
  6  3  2  0  0  0  0
  7  8  1  0  0  0  0
  9  7  1  0  0  0  0
  9 11  1  0  0  0  0
 10  9  2  0  0  0  0
 11 16  2  0  0  0  0
 12 13  2  0  0  0  0
 12 11  1  0  0  0  0
 13 14  1  0  0  0  0
 14 19  1  0  0  0  0
 14 15  2  0  0  0  0
 15 17  1  0  0  0  0
 16 15  1  0  0  0  0
 17 18  1  0  0  0  0
 20 22  1  0  0  0  0
 20 21  1  0  0  0  0
 20 19  1  0  0  0  0
 24  1  1  1  0  0  0
 24 23  1  0  0  0  0
 24 25  1  0  0  0  0
 25 30  2  0  0  0  0
 25 26  1  0  0  0  0
 26 27  2  0  0  0  0
 27 28  1  0  0  0  0
 29 28  2  0  0  0  0
 30 29  1  0  0  0  0
 31 32  1  0  0  0  0
 31 30  1  0  0  0  0
 31 33  1  0  0  0  0
 34 31  1  0  0  0  0
M  END
>  <MODEL>
9

>  <REMARK>
  Name = ZINC60021509
                            x       y       z     vdW  Elec       q    Type
                         _______ _______ _______ _____ _____    ______ ____

>  <TORSDO>
F 8

>  <minimizedAffinity>
-8.2202652416159552

$$$$
ZINC35292180
 OpenBabel10211215513D

 32 35  0  0  0  0  0  0  0  0999 V2000
   51.3640   51.7700   17.6680 N   0  0  0  0  0  0  0  0  0  0  0  0
   52.0440   51.5110   17.0270 H   0  0  0  0  0  0  0  0  0  0  0  0
   50.3940   50.8600   18.0520 C   0  0  0  0  0  0  0  0  0  0  0  0
   50.7010   49.8960   19.0420 C   0  0  0  0  0  0  0  0  0  0  0  0
   49.7270   48.9820   19.4270 C   0  0  0  0  0  0  0  0  0  0  0  0
   48.4680   49.0560   18.8100 C   0  0  0  0  0  0  0  0  0  0  0  0
   47.4400   48.1600   19.1550 C   0  0  0  0  0  0  0  0  0  0  0  0
   46.2250   48.2490   18.5420 C   0  0  0  0  0  0  0  0  0  0  0  0
   45.9870   49.2320   17.5670 C   0  0  0  0  0  0  0  0  0  0  0  0
   44.7020   49.0970   17.1240 O   0  0  0  0  0  0  0  0  0  0  0  0
   44.2920   47.7780   17.5270 C   0  0  0  0  0  0  0  0  0  0  0  0
   46.9750   50.1220   17.2120 C   0  0  0  0  0  0  0  0  0  0  0  0
   45.0860   47.5110   18.6970 O   0  0  0  0  0  0  0  0  0  0  0  0
   48.2350   50.0510   17.8260 C   0  0  0  0  0  0  0  0  0  0  0  0
   49.2040   50.9120   17.4940 N   0  0  0  0  0  0  0  0  0  0  0  0
   52.0020   49.8610   19.6390 C   0  0  0  0  0  0  0  0  0  0  0  0
   53.0340   49.8340   20.1120 N   0  0  0  0  0  0  0  0  0  0  0  0
   51.3630   53.1220   18.2300 C   0  0  0  0  0  0  0  0  0  0  0  0
   52.7210   53.4080   18.8740 C   0  0  0  0  0  0  0  0  0  0  0  0
   52.6960   52.9830   20.2750 N   0  0  0  0  0  0  0  0  0  0  0  0
   53.3250   52.3150   20.5910 H   0  0  0  0  0  0  0  0  0  0  0  0
   51.7990   53.5190   21.1260 C   0  0  0  0  0  0  0  0  0  0  0  0
   50.7210   52.5060   21.9860 S   0  0  0  0  0  0  0  0  0  0  0  0
   51.7520   54.8560   21.3020 N   0  0  0  0  0  0  0  0  0  0  0  0
   52.5420   55.3340   21.5960 H   0  0  0  0  0  0  0  0  0  0  0  0
   48.8600   58.7300   22.1890 C   0  0  0  0  0  0  0  0  0  0  0  0
   49.1370   57.4340   21.4730 C   0  0  0  0  0  0  0  0  0  0  0  0
   48.2150   56.9310   20.5730 C   0  0  0  0  0  0  0  0  0  0  0  0
   48.4650   55.7420   19.9140 C   0  0  0  0  0  0  0  0  0  0  0  0
   49.6370   55.0510   20.1530 C   0  0  0  0  0  0  0  0  0  0  0  0
   50.5640   55.5520   21.0570 C   0  0  0  0  0  0  0  0  0  0  0  0
   50.3130   56.7510   21.7130 C   0  0  0  0  0  0  0  0  0  0  0  0
  1  3  1  0  0  0  0
  1 18  1  0  0  0  0
  2  1  1  0  0  0  0
  3  4  2  0  0  0  0
  4  5  1  0  0  0  0
  4 16  1  0  0  0  0
  6  7  1  0  0  0  0
  6  5  2  0  0  0  0
  8 13  1  0  0  0  0
  8  7  2  0  0  0  0
  9  8  1  0  0  0  0
 10 11  1  0  0  0  0
 10  9  1  0  0  0  0
 11 13  1  0  0  0  0
 12  9  2  0  0  0  0
 12 14  1  0  0  0  0
 14  6  1  0  0  0  0
 15 14  2  0  0  0  0
 15  3  1  0  0  0  0
 16 17  3  0  0  0  0
 18 19  1  0  0  0  0
 19 20  1  0  0  0  0
 20 21  1  0  0  0  0
 20 22  1  0  0  0  0
 22 24  1  0  0  0  0
 22 23  2  0  0  0  0
 24 25  1  0  0  0  0
 27 32  1  0  0  0  0
 27 26  1  0  0  0  0
 28 27  2  0  0  0  0
 29 30  2  0  0  0  0
 29 28  1  0  0  0  0
 30 31  1  0  0  0  0
 31 24  1  0  0  0  0
 31 32  2  0  0  0  0
M  END
>  <MODEL>
1

>  <REMARK>
  Name = ZINC35292180
                            x       y       z     vdW  Elec       q    Type
                         _______ _______ _______ _____ _____    ______ ____

>  <TORSDO>
F 8

>  <minimizedAffinity>
-9.4960736221503463

$$$$
ZINC35292180
 OpenBabel10211215513D

 32 35  0  0  0  0  0  0  0  0999 V2000
   51.1540   52.2660   17.8810 N   0  0  0  0  0  0  0  0  0  0  0  0
   51.8760   52.1140   17.2500 H   0  0  0  0  0  0  0  0  0  0  0  0
   50.2660   51.2460   18.1730 C   0  0  0  0  0  0  0  0  0  0  0  0
   50.6490   50.2330   19.0840 C   0  0  0  0  0  0  0  0  0  0  0  0
   49.7570   49.2090   19.3780 C   0  0  0  0  0  0  0  0  0  0  0  0
   48.5000   49.2240   18.7500 C   0  0  0  0  0  0  0  0  0  0  0  0
   47.5530   48.2160   19.0040 C   0  0  0  0  0  0  0  0  0  0  0  0
   46.3390   48.2500   18.3830 C   0  0  0  0  0  0  0  0  0  0  0  0
   46.0230   49.2870   17.4890 C   0  0  0  0  0  0  0  0  0  0  0  0
   44.7590   49.0780   17.0170 O   0  0  0  0  0  0  0  0  0  0  0  0
   44.4640   47.6980   17.3040 C   0  0  0  0  0  0  0  0  0  0  0  0
   46.9310   50.2860   17.2240 C   0  0  0  0  0  0  0  0  0  0  0  0
   45.2690   47.4040   18.4600 O   0  0  0  0  0  0  0  0  0  0  0  0
   48.1880   50.2730   17.8490 C   0  0  0  0  0  0  0  0  0  0  0  0
   49.0800   51.2410   17.6040 N   0  0  0  0  0  0  0  0  0  0  0  0
   51.9440   50.2620   19.6960 C   0  0  0  0  0  0  0  0  0  0  0  0
   52.9700   50.2850   20.1800 N   0  0  0  0  0  0  0  0  0  0  0  0
   51.0050   53.5740   18.5230 C   0  0  0  0  0  0  0  0  0  0  0  0
   52.3240   53.9660   19.1920 C   0  0  0  0  0  0  0  0  0  0  0  0
   52.0760   54.3110   20.5940 N   0  0  0  0  0  0  0  0  0  0  0  0
   52.0970   53.6200   21.2750 H   0  0  0  0  0  0  0  0  0  0  0  0
   51.8200   55.5890   20.9380 C   0  0  0  0  0  0  0  0  0  0  0  0
   52.9320   56.8250   20.5330 S   0  0  0  0  0  0  0  0  0  0  0  0
   50.6860   55.8940   21.6020 N   0  0  0  0  0  0  0  0  0  0  0  0
   50.5530   55.5740   22.5070 H   0  0  0  0  0  0  0  0  0  0  0  0
   48.0240   56.9640   17.6100 C   0  0  0  0  0  0  0  0  0  0  0  0
   48.3910   57.2130   19.0500 C   0  0  0  0  0  0  0  0  0  0  0  0
   47.7550   58.2130   19.7620 C   0  0  0  0  0  0  0  0  0  0  0  0
   48.0900   58.4450   21.0830 C   0  0  0  0  0  0  0  0  0  0  0  0
   49.0610   57.6780   21.6970 C   0  0  0  0  0  0  0  0  0  0  0  0
   49.7020   56.6730   20.9850 C   0  0  0  0  0  0  0  0  0  0  0  0
   49.3600   56.4390   19.6580 C   0  0  0  0  0  0  0  0  0  0  0  0
  1  3  1  0  0  0  0
  1 18  1  0  0  0  0
  2  1  1  0  0  0  0
  3  4  2  0  0  0  0
  4  5  1  0  0  0  0
  4 16  1  0  0  0  0
  6  7  1  0  0  0  0
  6  5  2  0  0  0  0
  8 13  1  0  0  0  0
  8  7  2  0  0  0  0
  9  8  1  0  0  0  0
 10 11  1  0  0  0  0
 10  9  1  0  0  0  0
 11 13  1  0  0  0  0
 12  9  2  0  0  0  0
 12 14  1  0  0  0  0
 14  6  1  0  0  0  0
 15 14  2  0  0  0  0
 15  3  1  0  0  0  0
 16 17  3  0  0  0  0
 18 19  1  0  0  0  0
 19 20  1  0  0  0  0
 20 22  1  0  0  0  0
 20 21  1  0  0  0  0
 22 24  1  0  0  0  0
 23 22  2  0  0  0  0
 24 25  1  0  0  0  0
 26 27  1  0  0  0  0
 27 32  2  0  0  0  0
 27 28  1  0  0  0  0
 28 29  2  0  0  0  0
 29 30  1  0  0  0  0
 31 24  1  0  0  0  0
 31 30  2  0  0  0  0
 32 31  1  0  0  0  0
M  END
>  <MODEL>
2

>  <REMARK>
  Name = ZINC35292180
                            x       y       z     vdW  Elec       q    Type
                         _______ _______ _______ _____ _____    ______ ____

>  <TORSDO>
F 8

>  <minimizedAffinity>
-9.4069217232994404

$$$$
ZINC35292180
 OpenBabel10211215513D

 32 35  0  0  0  0  0  0  0  0999 V2000
   50.8020   50.2310   17.5270 N   0  0  0  0  0  0  0  0  0  0  0  0
   51.5580   49.7380   17.1720 H   0  0  0  0  0  0  0  0  0  0  0  0
   49.5480   49.6470   17.5570 C   0  0  0  0  0  0  0  0  0  0  0  0
   49.0570   49.1240   18.7770 C   0  0  0  0  0  0  0  0  0  0  0  0
   47.7980   48.5360   18.8080 C   0  0  0  0  0  0  0  0  0  0  0  0
   47.0600   48.4880   17.6140 C   0  0  0  0  0  0  0  0  0  0  0  0
   45.7800   47.9070   17.5790 C   0  0  0  0  0  0  0  0  0  0  0  0
   45.0810   47.8700   16.4090 C   0  0  0  0  0  0  0  0  0  0  0  0
   45.6270   48.4100   15.2320 C   0  0  0  0  0  0  0  0  0  0  0  0
   44.7260   48.2410   14.2210 O   0  0  0  0  0  0  0  0  0  0  0  0
   43.8090   47.2340   14.6870 C   0  0  0  0  0  0  0  0  0  0  0  0
   46.8770   48.9850   15.2400 C   0  0  0  0  0  0  0  0  0  0  0  0
   43.8430   47.3690   16.1190 O   0  0  0  0  0  0  0  0  0  0  0  0
   47.6180   49.0350   16.4310 C   0  0  0  0  0  0  0  0  0  0  0  0
   48.8340   49.5950   16.4540 N   0  0  0  0  0  0  0  0  0  0  0  0
   49.8510   49.1960   19.9670 C   0  0  0  0  0  0  0  0  0  0  0  0
   50.4800   49.2540   20.9110 N   0  0  0  0  0  0  0  0  0  0  0  0
   50.9880   51.5950   18.0300 C   0  0  0  0  0  0  0  0  0  0  0  0
   52.2830   51.6660   18.8420 C   0  0  0  0  0  0  0  0  0  0  0  0
   52.5600   53.0600   19.1960 N   0  0  0  0  0  0  0  0  0  0  0  0
   53.0850   53.6170   18.6000 H   0  0  0  0  0  0  0  0  0  0  0  0
   52.0850   53.5700   20.3500 C   0  0  0  0  0  0  0  0  0  0  0  0
   51.6740   52.5260   21.6420 S   0  0  0  0  0  0  0  0  0  0  0  0
   51.9340   54.9030   20.4860 N   0  0  0  0  0  0  0  0  0  0  0  0
   52.7120   55.4680   20.6110 H   0  0  0  0  0  0  0  0  0  0  0  0
   48.8100   58.3990   21.9650 C   0  0  0  0  0  0  0  0  0  0  0  0
   49.1140   57.1660   21.1540 C   0  0  0  0  0  0  0  0  0  0  0  0
   48.1290   56.5950   20.3700 C   0  0  0  0  0  0  0  0  0  0  0  0
   48.4040   55.4630   19.6240 C   0  0  0  0  0  0  0  0  0  0  0  0
   49.6650   54.8990   19.6600 C   0  0  0  0  0  0  0  0  0  0  0  0
   50.6560   55.4700   20.4470 C   0  0  0  0  0  0  0  0  0  0  0  0
   50.3780   56.6110   21.1910 C   0  0  0  0  0  0  0  0  0  0  0  0
  1  3  1  0  0  0  0
  1 18  1  0  0  0  0
  2  1  1  0  0  0  0
  3  4  2  0  0  0  0
  4  5  1  0  0  0  0
  4 16  1  0  0  0  0
  6  5  2  0  0  0  0
  7  6  1  0  0  0  0
  8  7  2  0  0  0  0
  9 12  2  0  0  0  0
  9  8  1  0  0  0  0
 10 11  1  0  0  0  0
 10  9  1  0  0  0  0
 11 13  1  0  0  0  0
 12 14  1  0  0  0  0
 13  8  1  0  0  0  0
 14 15  2  0  0  0  0
 14  6  1  0  0  0  0
 15  3  1  0  0  0  0
 16 17  3  0  0  0  0
 18 19  1  0  0  0  0
 19 20  1  0  0  0  0
 20 22  1  0  0  0  0
 21 20  1  0  0  0  0
 22 24  1  0  0  0  0
 22 23  2  0  0  0  0
 24 25  1  0  0  0  0
 27 32  1  0  0  0  0
 27 26  1  0  0  0  0
 28 27  2  0  0  0  0
 29 30  2  0  0  0  0
 29 28  1  0  0  0  0
 30 31  1  0  0  0  0
 31 24  1  0  0  0  0
 31 32  2  0  0  0  0
M  END
>  <MODEL>
3

>  <REMARK>
  Name = ZINC35292180
                            x       y       z     vdW  Elec       q    Type
                         _______ _______ _______ _____ _____    ______ ____

>  <TORSDO>
F 8

>  <minimizedAffinity>
-9.0635031745930714

$$$$
ZINC35292180
 OpenBabel10211215513D

 32 35  0  0  0  0  0  0  0  0999 V2000
   52.1810   50.4540   18.2780 N   0  0  0  0  0  0  0  0  0  0  0  0
   52.6880   49.6600   18.5100 H   0  0  0  0  0  0  0  0  0  0  0  0
   51.9630   51.4370   19.2270 C   0  0  0  0  0  0  0  0  0  0  0  0
   51.3390   51.0940   20.4500 C   0  0  0  0  0  0  0  0  0  0  0  0
   51.1200   52.0820   21.4030 C   0  0  0  0  0  0  0  0  0  0  0  0
   51.5320   53.3920   21.1060 C   0  0  0  0  0  0  0  0  0  0  0  0
   51.3380   54.4360   22.0280 C   0  0  0  0  0  0  0  0  0  0  0  0
   51.7450   55.7010   21.7190 C   0  0  0  0  0  0  0  0  0  0  0  0
   52.3600   55.9720   20.4850 C   0  0  0  0  0  0  0  0  0  0  0  0
   52.6640   57.3030   20.4390 O   0  0  0  0  0  0  0  0  0  0  0  0
   51.8640   57.9160   21.4660 C   0  0  0  0  0  0  0  0  0  0  0  0
   52.5630   54.9680   19.5670 C   0  0  0  0  0  0  0  0  0  0  0  0
   51.6710   56.8650   22.4300 O   0  0  0  0  0  0  0  0  0  0  0  0
   52.1520   53.6580   19.8590 C   0  0  0  0  0  0  0  0  0  0  0  0
   52.3460   52.6700   18.9760 N   0  0  0  0  0  0  0  0  0  0  0  0
   50.9350   49.7430   20.7020 C   0  0  0  0  0  0  0  0  0  0  0  0
   50.6160   48.6720   20.9030 N   0  0  0  0  0  0  0  0  0  0  0  0
   51.6460   50.6120   16.9230 C   0  0  0  0  0  0  0  0  0  0  0  0
   50.1160   50.5940   16.9750 C   0  0  0  0  0  0  0  0  0  0  0  0
   49.6010   51.9200   16.6250 N   0  0  0  0  0  0  0  0  0  0  0  0
   49.9100   52.3640   15.8190 H   0  0  0  0  0  0  0  0  0  0  0  0
   48.6970   52.5230   17.4220 C   0  0  0  0  0  0  0  0  0  0  0  0
   47.0230   52.2980   17.1430 S   0  0  0  0  0  0  0  0  0  0  0  0
   49.1110   53.3040   18.4410 N   0  0  0  0  0  0  0  0  0  0  0  0
   49.6320   52.9210   19.1630 H   0  0  0  0  0  0  0  0  0  0  0  0
   48.2580   57.4240   20.9830 C   0  0  0  0  0  0  0  0  0  0  0  0
   48.3710   56.6880   19.6730 C   0  0  0  0  0  0  0  0  0  0  0  0
   48.1560   57.3580   18.4830 C   0  0  0  0  0  0  0  0  0  0  0  0
   48.2580   56.6860   17.2790 C   0  0  0  0  0  0  0  0  0  0  0  0
   48.5750   55.3410   17.2610 C   0  0  0  0  0  0  0  0  0  0  0  0
   48.7900   54.6650   18.4540 C   0  0  0  0  0  0  0  0  0  0  0  0
   48.6920   55.3440   19.6620 C   0  0  0  0  0  0  0  0  0  0  0  0
  1  2  1  0  0  0  0
  1  3  1  0  0  0  0
  3  4  1  0  0  0  0
  4 16  1  0  0  0  0
  4  5  2  0  0  0  0
  6  5  1  0  0  0  0
  6  7  2  0  0  0  0
  8  7  1  0  0  0  0
  8 13  1  0  0  0  0
  9  8  2  0  0  0  0
 10  9  1  0  0  0  0
 10 11  1  0  0  0  0
 11 13  1  0  0  0  0
 12 14  2  0  0  0  0
 12  9  1  0  0  0  0
 14  6  1  0  0  0  0
 15  3  2  0  0  0  0
 15 14  1  0  0  0  0
 16 17  3  0  0  0  0
 18 19  1  0  0  0  0
 18  1  1  0  0  0  0
 20 19  1  0  0  0  0
 20 22  1  0  0  0  0
 21 20  1  0  0  0  0
 22 24  1  0  0  0  0
 23 22  2  0  0  0  0
 24 31  1  0  0  0  0
 24 25  1  0  0  0  0
 27 26  1  0  0  0  0
 28 27  2  0  0  0  0
 29 28  1  0  0  0  0
 30 29  2  0  0  0  0
 30 31  1  0  0  0  0
 31 32  2  0  0  0  0
 32 27  1  0  0  0  0
M  END
>  <MODEL>
4

>  <REMARK>
  Name = ZINC35292180
                            x       y       z     vdW  Elec       q    Type
                         _______ _______ _______ _____ _____    ______ ____

>  <TORSDO>
F 8

>  <minimizedAffinity>
-8.9882028485443115

$$$$
ZINC35292180
 OpenBabel10211215513D

 32 35  0  0  0  0  0  0  0  0999 V2000
   50.3480   49.7830   18.4220 N   0  0  0  0  0  0  0  0  0  0  0  0
   51.0180   50.3480   18.0030 H   0  0  0  0  0  0  0  0  0  0  0  0
   49.1600   49.5150   17.7650 C   0  0  0  0  0  0  0  0  0  0  0  0
   48.3390   50.5920   17.3520 C   0  0  0  0  0  0  0  0  0  0  0  0
   47.1450   50.3220   16.6920 C   0  0  0  0  0  0  0  0  0  0  0  0
   46.8030   48.9790   16.4630 C   0  0  0  0  0  0  0  0  0  0  0  0
   45.6090   48.6410   15.8020 C   0  0  0  0  0  0  0  0  0  0  0  0
   45.2960   47.3300   15.5900 C   0  0  0  0  0  0  0  0  0  0  0  0
   46.1580   46.3100   16.0270 C   0  0  0  0  0  0  0  0  0  0  0  0
   45.6070   45.1070   15.6890 O   0  0  0  0  0  0  0  0  0  0  0  0
   44.2200   45.3810   15.4180 C   0  0  0  0  0  0  0  0  0  0  0  0
   47.3330   46.6150   16.6750 C   0  0  0  0  0  0  0  0  0  0  0  0
   44.2160   46.7530   14.9850 O   0  0  0  0  0  0  0  0  0  0  0  0
   47.6780   47.9550   16.9060 C   0  0  0  0  0  0  0  0  0  0  0  0
   48.8200   48.2670   17.5320 N   0  0  0  0  0  0  0  0  0  0  0  0
   48.7330   51.9440   17.6120 C   0  0  0  0  0  0  0  0  0  0  0  0
   49.0460   53.0150   17.8190 N   0  0  0  0  0  0  0  0  0  0  0  0
   50.5950   49.2150   19.7490 C   0  0  0  0  0  0  0  0  0  0  0  0
   51.2650   50.2660   20.6370 C   0  0  0  0  0  0  0  0  0  0  0  0
   50.8290   51.6030   20.2250 N   0  0  0  0  0  0  0  0  0  0  0  0
   49.9160   51.7460   19.9310 H   0  0  0  0  0  0  0  0  0  0  0  0
   51.6980   52.6330   20.2540 C   0  0  0  0  0  0  0  0  0  0  0  0
   52.6510   52.9900   18.8780 S   0  0  0  0  0  0  0  0  0  0  0  0
   51.8140   53.3850   21.3670 N   0  0  0  0  0  0  0  0  0  0  0  0
   52.3330   53.0600   22.1190 H   0  0  0  0  0  0  0  0  0  0  0  0
   48.1810   56.3820   19.9570 C   0  0  0  0  0  0  0  0  0  0  0  0
   49.4250   56.1140   20.7640 C   0  0  0  0  0  0  0  0  0  0  0  0
   49.9490   57.1040   21.5750 C   0  0  0  0  0  0  0  0  0  0  0  0
   51.0910   56.8630   22.3170 C   0  0  0  0  0  0  0  0  0  0  0  0
   51.7120   55.6300   22.2500 C   0  0  0  0  0  0  0  0  0  0  0  0
   51.1890   54.6340   21.4370 C   0  0  0  0  0  0  0  0  0  0  0  0
   50.0380   54.8780   20.6970 C   0  0  0  0  0  0  0  0  0  0  0  0
  1 18  1  0  0  0  0
  2  1  1  0  0  0  0
  3  1  1  0  0  0  0
  4 16  1  0  0  0  0
  4  3  2  0  0  0  0
  5  4  1  0  0  0  0
  6  5  2  0  0  0  0
  6 14  1  0  0  0  0
  7  6  1  0  0  0  0
  8  7  2  0  0  0  0
  8  9  1  0  0  0  0
  9 12  2  0  0  0  0
 10  9  1  0  0  0  0
 11 10  1  0  0  0  0
 12 14  1  0  0  0  0
 13 11  1  0  0  0  0
 13  8  1  0  0  0  0
 14 15  2  0  0  0  0
 15  3  1  0  0  0  0
 16 17  3  0  0  0  0
 18 19  1  0  0  0  0
 20 22  1  0  0  0  0
 20 19  1  0  0  0  0
 21 20  1  0  0  0  0
 22 24  1  0  0  0  0
 23 22  2  0  0  0  0
 24 31  1  0  0  0  0
 24 25  1  0  0  0  0
 26 27  1  0  0  0  0
 27 28  1  0  0  0  0
 28 29  2  0  0  0  0
 30 29  1  0  0  0  0
 31 30  2  0  0  0  0
 32 27  2  0  0  0  0
 32 31  1  0  0  0  0
M  END
>  <MODEL>
5

>  <REMARK>
  Name = ZINC35292180
                            x       y       z     vdW  Elec       q    Type
                         _______ _______ _______ _____ _____    ______ ____

>  <TORSDO>
F 8

>  <minimizedAffinity>
-8.8926451019687196

$$$$
ZINC35292180
 OpenBabel10211215513D

 32 35  0  0  0  0  0  0  0  0999 V2000
   51.4730   52.2360   17.9210 N   0  0  0  0  0  0  0  0  0  0  0  0
   51.3060   51.8140   17.0630 H   0  0  0  0  0  0  0  0  0  0  0  0
   50.6030   53.2020   18.3970 C   0  0  0  0  0  0  0  0  0  0  0  0
   49.2930   53.2760   17.8680 C   0  0  0  0  0  0  0  0  0  0  0  0
   48.4190   54.2460   18.3450 C   0  0  0  0  0  0  0  0  0  0  0  0
   48.8820   55.1200   19.3430 C   0  0  0  0  0  0  0  0  0  0  0  0
   48.0480   56.1240   19.8670 C   0  0  0  0  0  0  0  0  0  0  0  0
   48.5170   56.9630   20.8340 C   0  0  0  0  0  0  0  0  0  0  0  0
   49.8310   56.8340   21.3160 C   0  0  0  0  0  0  0  0  0  0  0  0
   50.0360   57.7900   22.2690 O   0  0  0  0  0  0  0  0  0  0  0  0
   48.9910   58.7590   22.0740 C   0  0  0  0  0  0  0  0  0  0  0  0
   50.6670   55.8600   20.8210 C   0  0  0  0  0  0  0  0  0  0  0  0
   47.9160   57.9980   21.4920 O   0  0  0  0  0  0  0  0  0  0  0  0
   50.2090   54.9840   19.8240 C   0  0  0  0  0  0  0  0  0  0  0  0
   51.0100   54.0290   19.3350 N   0  0  0  0  0  0  0  0  0  0  0  0
   48.8710   52.3610   16.8500 C   0  0  0  0  0  0  0  0  0  0  0  0
   48.5360   51.6360   16.0420 N   0  0  0  0  0  0  0  0  0  0  0  0
   52.6450   51.8520   18.7110 C   0  0  0  0  0  0  0  0  0  0  0  0
   52.4560   50.4310   19.2460 C   0  0  0  0  0  0  0  0  0  0  0  0
   51.3210   49.8010   18.5660 N   0  0  0  0  0  0  0  0  0  0  0  0
   51.3590   49.6340   17.6110 H   0  0  0  0  0  0  0  0  0  0  0  0
   50.2240   49.4530   19.2680 C   0  0  0  0  0  0  0  0  0  0  0  0
   50.3860   48.6050   20.7460 S   0  0  0  0  0  0  0  0  0  0  0  0
   48.9980   49.7730   18.8060 N   0  0  0  0  0  0  0  0  0  0  0  0
   48.6850   50.6890   18.8580 H   0  0  0  0  0  0  0  0  0  0  0  0
   44.7430   47.3120   18.8070 C   0  0  0  0  0  0  0  0  0  0  0  0
   46.1110   47.5710   18.2310 C   0  0  0  0  0  0  0  0  0  0  0  0
   46.5580   46.8300   17.1530 C   0  0  0  0  0  0  0  0  0  0  0  0
   47.8130   47.0640   16.6210 C   0  0  0  0  0  0  0  0  0  0  0  0
   48.6250   48.0390   17.1670 C   0  0  0  0  0  0  0  0  0  0  0  0
   48.1800   48.7850   18.2500 C   0  0  0  0  0  0  0  0  0  0  0  0
   46.9160   48.5510   18.7790 C   0  0  0  0  0  0  0  0  0  0  0  0
  1  3  1  0  0  0  0
  1 18  1  0  0  0  0
  2  1  1  0  0  0  0
  3 15  2  0  0  0  0
  4  5  2  0  0  0  0
  4  3  1  0  0  0  0
  5  6  1  0  0  0  0
  6 14  2  0  0  0  0
  6  7  1  0  0  0  0
  7  8  2  0  0  0  0
  8  9  1  0  0  0  0
  8 13  1  0  0  0  0
  9 10  1  0  0  0  0
 11 10  1  0  0  0  0
 12  9  2  0  0  0  0
 13 11  1  0  0  0  0
 14 12  1  0  0  0  0
 15 14  1  0  0  0  0
 16  4  1  0  0  0  0
 17 16  3  0  0  0  0
 18 19  1  0  0  0  0
 20 19  1  0  0  0  0
 20 22  1  0  0  0  0
 21 20  1  0  0  0  0
 22 23  2  0  0  0  0
 24 25  1  0  0  0  0
 24 22  1  0  0  0  0
 27 32  2  0  0  0  0
 27 26  1  0  0  0  0
 28 27  1  0  0  0  0
 29 28  2  0  0  0  0
 29 30  1  0  0  0  0
 30 31  2  0  0  0  0
 31 32  1  0  0  0  0
 31 24  1  0  0  0  0
M  END
>  <MODEL>
6

>  <REMARK>
  Name = ZINC35292180
                            x       y       z     vdW  Elec       q    Type
                         _______ _______ _______ _____ _____    ______ ____

>  <TORSDO>
F 8

>  <minimizedAffinity>
-8.8687737955119079

$$$$
ZINC35292180
 OpenBabel10211215513D

 32 35  0  0  0  0  0  0  0  0999 V2000
   51.1570   53.7430   20.2960 N   0  0  0  0  0  0  0  0  0  0  0  0
   52.0630   53.6490   19.9620 H   0  0  0  0  0  0  0  0  0  0  0  0
   50.4650   54.9250   20.0970 C   0  0  0  0  0  0  0  0  0  0  0  0
   50.4970   55.9240   21.1000 C   0  0  0  0  0  0  0  0  0  0  0  0
   49.8010   57.1100   20.9000 C   0  0  0  0  0  0  0  0  0  0  0  0
   49.0900   57.2670   19.6990 C   0  0  0  0  0  0  0  0  0  0  0  0
   48.3650   58.4440   19.4370 C   0  0  0  0  0  0  0  0  0  0  0  0
   47.6810   58.5750   18.2650 C   0  0  0  0  0  0  0  0  0  0  0  0
   47.6920   57.5440   17.3110 C   0  0  0  0  0  0  0  0  0  0  0  0
   46.9350   57.9340   16.2450 O   0  0  0  0  0  0  0  0  0  0  0  0
   46.1280   59.0260   16.7240 C   0  0  0  0  0  0  0  0  0  0  0  0
   48.3940   56.3830   17.5430 C   0  0  0  0  0  0  0  0  0  0  0  0
   46.9150   59.6000   17.7840 O   0  0  0  0  0  0  0  0  0  0  0  0
   49.1060   56.2220   18.7420 C   0  0  0  0  0  0  0  0  0  0  0  0
   49.7960   55.0990   18.9780 N   0  0  0  0  0  0  0  0  0  0  0  0
   51.2360   55.7130   22.3080 C   0  0  0  0  0  0  0  0  0  0  0  0
   51.8220   55.5450   23.2660 N   0  0  0  0  0  0  0  0  0  0  0  0
   50.5210   52.6340   21.0120 C   0  0  0  0  0  0  0  0  0  0  0  0
   51.5930   51.6410   21.4680 C   0  0  0  0  0  0  0  0  0  0  0  0
   51.0900   50.2740   21.3100 N   0  0  0  0  0  0  0  0  0  0  0  0
   50.5400   49.8760   22.0040 H   0  0  0  0  0  0  0  0  0  0  0  0
   51.3910   49.5690   20.2010 C   0  0  0  0  0  0  0  0  0  0  0  0
   52.9550   49.6760   19.5170 S   0  0  0  0  0  0  0  0  0  0  0  0
   50.4580   48.7790   19.6310 N   0  0  0  0  0  0  0  0  0  0  0  0
   50.4980   47.8180   19.7530 H   0  0  0  0  0  0  0  0  0  0  0  0
   45.8250   48.6310   17.9940 C   0  0  0  0  0  0  0  0  0  0  0  0
   47.1770   49.2940   18.0560 C   0  0  0  0  0  0  0  0  0  0  0  0
   47.4040   50.4640   17.3550 C   0  0  0  0  0  0  0  0  0  0  0  0
   48.6430   51.0760   17.4080 C   0  0  0  0  0  0  0  0  0  0  0  0
   49.6580   50.5200   18.1620 C   0  0  0  0  0  0  0  0  0  0  0  0
   49.4340   49.3450   18.8670 C   0  0  0  0  0  0  0  0  0  0  0  0
   48.1860   48.7350   18.8160 C   0  0  0  0  0  0  0  0  0  0  0  0
  1 18  1  0  0  0  0
  2  1  1  0  0  0  0
  3  1  1  0  0  0  0
  3  4  2  0  0  0  0
  4 16  1  0  0  0  0
  5  4  1  0  0  0  0
  6  5  2  0  0  0  0
  7  6  1  0  0  0  0
  8  7  2  0  0  0  0
  9 12  2  0  0  0  0
  9  8  1  0  0  0  0
 10 11  1  0  0  0  0
 10  9  1  0  0  0  0
 11 13  1  0  0  0  0
 12 14  1  0  0  0  0
 13  8  1  0  0  0  0
 14 15  2  0  0  0  0
 14  6  1  0  0  0  0
 15  3  1  0  0  0  0
 16 17  3  0  0  0  0
 18 19  1  0  0  0  0
 20 19  1  0  0  0  0
 20 21  1  0  0  0  0
 22 20  1  0  0  0  0
 23 22  2  0  0  0  0
 24 25  1  0  0  0  0
 24 22  1  0  0  0  0
 26 27  1  0  0  0  0
 27 32  2  0  0  0  0
 28 29  2  0  0  0  0
 28 27  1  0  0  0  0
 29 30  1  0  0  0  0
 30 31  2  0  0  0  0
 31 24  1  0  0  0  0
 32 31  1  0  0  0  0
M  END
>  <MODEL>
7

>  <REMARK>
  Name = ZINC35292180
                            x       y       z     vdW  Elec       q    Type
                         _______ _______ _______ _____ _____    ______ ____

>  <TORSDO>
F 8

>  <minimizedAffinity>
-8.7192174573104531

$$$$
ZINC35292180
 OpenBabel10211215513D

 32 35  0  0  0  0  0  0  0  0999 V2000
   50.4770   53.4400   18.7560 N   0  0  0  0  0  0  0  0  0  0  0  0
   51.4380   53.3190   18.7000 H   0  0  0  0  0  0  0  0  0  0  0  0
   49.9560   54.6480   19.1850 C   0  0  0  0  0  0  0  0  0  0  0  0
   50.1680   55.0580   20.5230 C   0  0  0  0  0  0  0  0  0  0  0  0
   49.6440   56.2710   20.9550 C   0  0  0  0  0  0  0  0  0  0  0  0
   48.9190   57.0450   20.0330 C   0  0  0  0  0  0  0  0  0  0  0  0
   48.3630   58.2810   20.4080 C   0  0  0  0  0  0  0  0  0  0  0  0
   47.6620   59.0160   19.4970 C   0  0  0  0  0  0  0  0  0  0  0  0
   47.4900   58.5500   18.1830 C   0  0  0  0  0  0  0  0  0  0  0  0
   46.7580   59.4720   17.4910 O   0  0  0  0  0  0  0  0  0  0  0  0
   46.1360   60.2990   18.4910 C   0  0  0  0  0  0  0  0  0  0  0  0
   48.0250   57.3440   17.7910 C   0  0  0  0  0  0  0  0  0  0  0  0
   47.0360   60.2250   19.6120 O   0  0  0  0  0  0  0  0  0  0  0  0
   48.7490   56.5680   18.7090 C   0  0  0  0  0  0  0  0  0  0  0  0
   49.2790   55.3950   18.3400 N   0  0  0  0  0  0  0  0  0  0  0  0
   50.9120   54.2300   21.4240 C   0  0  0  0  0  0  0  0  0  0  0  0
   51.5040   53.5750   22.1380 N   0  0  0  0  0  0  0  0  0  0  0  0
   49.5770   52.3450   18.3860 C   0  0  0  0  0  0  0  0  0  0  0  0
   50.3920   51.1970   17.7840 C   0  0  0  0  0  0  0  0  0  0  0  0
   50.0380   51.0360   16.3720 N   0  0  0  0  0  0  0  0  0  0  0  0
   49.8920   51.8170   15.8160 H   0  0  0  0  0  0  0  0  0  0  0  0
   49.9160   49.8010   15.8460 C   0  0  0  0  0  0  0  0  0  0  0  0
   50.5360   49.4700   14.2850 S   0  0  0  0  0  0  0  0  0  0  0  0
   49.3050   48.8250   16.5490 N   0  0  0  0  0  0  0  0  0  0  0  0
   49.8350   48.1690   17.0270 H   0  0  0  0  0  0  0  0  0  0  0  0
   45.0410   47.9940   14.2490 C   0  0  0  0  0  0  0  0  0  0  0  0
   45.8160   48.3590   15.4880 C   0  0  0  0  0  0  0  0  0  0  0  0
   45.1460   48.6320   16.6670 C   0  0  0  0  0  0  0  0  0  0  0  0
   45.8530   48.9680   17.8060 C   0  0  0  0  0  0  0  0  0  0  0  0
   47.2330   49.0330   17.7700 C   0  0  0  0  0  0  0  0  0  0  0  0
   47.9090   48.7610   16.5890 C   0  0  0  0  0  0  0  0  0  0  0  0
   47.1950   48.4180   15.4470 C   0  0  0  0  0  0  0  0  0  0  0  0
  1  3  1  0  0  0  0
  2  1  1  0  0  0  0
  3  4  2  0  0  0  0
  4  5  1  0  0  0  0
  4 16  1  0  0  0  0
  6  7  1  0  0  0  0
  6  5  2  0  0  0  0
  8 13  1  0  0  0  0
  8  7  2  0  0  0  0
  9  8  1  0  0  0  0
 10  9  1  0  0  0  0
 10 11  1  0  0  0  0
 11 13  1  0  0  0  0
 12  9  2  0  0  0  0
 12 14  1  0  0  0  0
 14  6  1  0  0  0  0
 15 14  2  0  0  0  0
 15  3  1  0  0  0  0
 16 17  3  0  0  0  0
 18  1  1  0  0  0  0
 19 18  1  0  0  0  0
 20 19  1  0  0  0  0
 21 20  1  0  0  0  0
 22 20  1  0  0  0  0
 22 24  1  0  0  0  0
 23 22  2  0  0  0  0
 24 31  1  0  0  0  0
 24 25  1  0  0  0  0
 26 27  1  0  0  0  0
 27 28  1  0  0  0  0
 28 29  2  0  0  0  0
 30 29  1  0  0  0  0
 31 30  2  0  0  0  0
 32 27  2  0  0  0  0
 32 31  1  0  0  0  0
M  END
>  <MODEL>
8

>  <REMARK>
  Name = ZINC35292180
                            x       y       z     vdW  Elec       q    Type
                         _______ _______ _______ _____ _____    ______ ____

>  <TORSDO>
F 8

>  <minimizedAffinity>
-8.671621374053629

$$$$
ZINC35292180
 OpenBabel10211215513D

 32 35  0  0  0  0  0  0  0  0999 V2000
   51.0080   50.0940   17.8680 N   0  0  0  0  0  0  0  0  0  0  0  0
   51.7630   49.5110   18.0450 H   0  0  0  0  0  0  0  0  0  0  0  0
   49.7240   49.5780   17.8530 C   0  0  0  0  0  0  0  0  0  0  0  0
   49.1490   49.1150   19.0610 C   0  0  0  0  0  0  0  0  0  0  0  0
   47.8600   48.5960   19.0460 C   0  0  0  0  0  0  0  0  0  0  0  0
   47.1770   48.5530   17.8190 C   0  0  0  0  0  0  0  0  0  0  0  0
   45.8710   48.0380   17.7380 C   0  0  0  0  0  0  0  0  0  0  0  0
   45.2270   48.0040   16.5360 C   0  0  0  0  0  0  0  0  0  0  0  0
   45.8570   48.4810   15.3740 C   0  0  0  0  0  0  0  0  0  0  0  0
   44.9960   48.3300   14.3250 O   0  0  0  0  0  0  0  0  0  0  0  0
   44.0050   47.3870   14.7710 C   0  0  0  0  0  0  0  0  0  0  0  0
   47.1340   48.9900   15.4270 C   0  0  0  0  0  0  0  0  0  0  0  0
   43.9790   47.5610   16.2000 O   0  0  0  0  0  0  0  0  0  0  0  0
   47.8190   49.0350   16.6510 C   0  0  0  0  0  0  0  0  0  0  0  0
   49.0610   49.5310   16.7180 N   0  0  0  0  0  0  0  0  0  0  0  0
   49.8890   49.1800   20.2860 C   0  0  0  0  0  0  0  0  0  0  0  0
   50.4750   49.2310   21.2570 N   0  0  0  0  0  0  0  0  0  0  0  0
   51.2270   51.5200   17.6160 C   0  0  0  0  0  0  0  0  0  0  0  0
   51.1690   52.2860   18.9390 C   0  0  0  0  0  0  0  0  0  0  0  0
   49.8000   52.7480   19.1760 N   0  0  0  0  0  0  0  0  0  0  0  0
   49.3180   52.4540   19.9650 H   0  0  0  0  0  0  0  0  0  0  0  0
   49.2100   53.5840   18.2990 C   0  0  0  0  0  0  0  0  0  0  0  0
   47.9280   53.0250   17.3130 S   0  0  0  0  0  0  0  0  0  0  0  0
   49.6290   54.8620   18.1990 N   0  0  0  0  0  0  0  0  0  0  0  0
   50.0290   55.1780   17.3740 H   0  0  0  0  0  0  0  0  0  0  0  0
   51.6450   57.3120   21.9540 C   0  0  0  0  0  0  0  0  0  0  0  0
   50.4460   56.9380   21.1210 C   0  0  0  0  0  0  0  0  0  0  0  0
   49.2020   57.4560   21.4300 C   0  0  0  0  0  0  0  0  0  0  0  0
   48.0990   57.1150   20.6690 C   0  0  0  0  0  0  0  0  0  0  0  0
   48.2370   56.2550   19.5970 C   0  0  0  0  0  0  0  0  0  0  0  0
   49.4850   55.7330   19.2840 C   0  0  0  0  0  0  0  0  0  0  0  0
   50.5920   56.0820   20.0470 C   0  0  0  0  0  0  0  0  0  0  0  0
  1  2  1  0  0  0  0
  3  1  1  0  0  0  0
  3  4  2  0  0  0  0
  4 16  1  0  0  0  0
  5  4  1  0  0  0  0
  6  5  2  0  0  0  0
  7  6  1  0  0  0  0
  8  7  2  0  0  0  0
  9 12  2  0  0  0  0
  9  8  1  0  0  0  0
 10 11  1  0  0  0  0
 10  9  1  0  0  0  0
 11 13  1  0  0  0  0
 12 14  1  0  0  0  0
 13  8  1  0  0  0  0
 14 15  2  0  0  0  0
 14  6  1  0  0  0  0
 15  3  1  0  0  0  0
 16 17  3  0  0  0  0
 18  1  1  0  0  0  0
 18 19  1  0  0  0  0
 19 20  1  0  0  0  0
 20 21  1  0  0  0  0
 22 20  1  0  0  0  0
 23 22  2  0  0  0  0
 24 22  1  0  0  0  0
 24 31  1  0  0  0  0
 25 24  1  0  0  0  0
 27 28  1  0  0  0  0
 27 26  1  0  0  0  0
 29 28  2  0  0  0  0
 30 29  1  0  0  0  0
 31 30  2  0  0  0  0
 31 32  1  0  0  0  0
 32 27  2  0  0  0  0
M  END
>  <MODEL>
9

>  <REMARK>
  Name = ZINC35292180
                            x       y       z     vdW  Elec       q    Type
                         _______ _______ _______ _____ _____    ______ ____

>  <TORSDO>
F 8

>  <minimizedAffinity>
-8.5858429654851189

$$$$
ZINC20058656
 OpenBabel10211215533D

 27 29  0  0  0  0  0  0  0  0999 V2000
   52.1050   53.6940   19.1220 C   0  0  0  0  0  0  0  0  0  0  0  0
   52.3130   54.6100   20.1280 C   0  0  0  0  0  0  0  0  0  0  0  0
   51.6780   54.4540   21.3550 C   0  0  0  0  0  0  0  0  0  0  0  0
   50.8330   53.3690   21.5730 C   0  0  0  0  0  0  0  0  0  0  0  0
   50.6150   52.4530   20.5690 C   0  0  0  0  0  0  0  0  0  0  0  0
   51.2530   52.6060   19.3350 C   0  0  0  0  0  0  0  0  0  0  0  0
   51.0270   51.6220   18.2590 C   0  0  0  0  0  0  0  0  0  0  0  0
   49.7710   51.3080   17.8840 N   0  0  0  0  0  0  0  0  0  0  0  0
   48.9140   51.7880   18.3800 H   0  0  0  0  0  0  0  0  0  0  0  0
   51.9750   51.0930   17.7100 O   0  0  0  0  0  0  0  0  0  0  0  0
   49.5470   50.3310   16.8160 C   0  0  0  0  0  0  0  0  0  0  0  0
   48.6080   50.9300   15.7660 C   0  0  0  0  0  0  0  0  0  0  0  0
   48.3740   49.9100   14.6500 C   0  0  0  0  0  0  0  0  0  0  0  0
   47.7420   48.6460   15.2390 C   0  0  0  0  0  0  0  0  0  0  0  0
   48.6800   48.0490   16.2880 C   0  0  0  0  0  0  0  0  0  0  0  0
   48.9150   49.0680   17.4040 C   0  0  0  0  0  0  0  0  0  0  0  0
   51.8910   55.3830   22.3720 N   0  0  0  0  0  0  0  0  0  0  0  0
   52.2080   55.0430   23.3690 H   0  0  0  0  0  0  0  0  0  0  0  0
   51.7090   56.6970   22.1340 C   0  0  0  0  0  0  0  0  0  0  0  0
   53.0370   57.6770   21.6850 S   0  0  0  0  0  0  0  0  0  0  0  0
   50.4800   57.2370   22.2490 N   0  0  0  0  0  0  0  0  0  0  0  0
   50.0810   57.4930   23.2420 H   0  0  0  0  0  0  0  0  0  0  0  0
   49.7380   57.4660   21.1470 C   0  0  0  0  0  0  0  0  0  0  0  0
   50.1770   57.1840   20.0520 O   0  0  0  0  0  0  0  0  0  0  0  0
   48.3640   58.0700   21.2750 C   0  0  0  0  0  0  0  0  0  0  0  0
   47.2350   57.4390   20.4580 C   0  0  0  0  0  0  0  0  0  0  0  0
   47.7990   58.8040   20.0570 C   0  0  0  0  0  0  0  0  0  0  0  0
  1  6  2  0  0  0  0
  1  2  1  0  0  0  0
  2  3  2  0  0  0  0
  3  4  1  0  0  0  0
  3 17  1  0  0  0  0
  5  4  2  0  0  0  0
  6  5  1  0  0  0  0
  7  6  1  0  0  0  0
  8  7  1  0  0  0  0
  8  9  1  0  0  0  0
 10  7  2  0  0  0  0
 11 16  1  0  0  0  0
 11  8  1  0  0  0  0
 12 11  1  0  0  0  0
 13 14  1  0  0  0  0
 13 12  1  0  0  0  0
 14 15  1  0  0  0  0
 15 16  1  0  0  0  0
 17 18  1  0  0  0  0
 19 21  1  0  0  0  0
 19 17  1  0  0  0  0
 20 19  2  0  0  0  0
 21 22  1  0  0  0  0
 23 25  1  0  0  0  0
 23 21  1  0  0  0  0
 24 23  2  0  0  0  0
 26 25  1  0  0  0  0
 27 26  1  0  0  0  0
 27 25  1  0  0  0  0
M  END
>  <MODEL>
1

>  <REMARK>
  Name = ZINC20058656
                            x       y       z     vdW  Elec       q    Type
                         _______ _______ _______ _____ _____    ______ ____

>  <TORSDO>
F 6

>  <minimizedAffinity>
-8.6170738336868435

$$$$
ZINC20058656
 OpenBabel10211215533D

 27 29  0  0  0  0  0  0  0  0999 V2000
   48.1970   58.0040   20.5540 C   0  0  0  0  0  0  0  0  0  0  0  0
   48.9160   56.9480   21.0670 C   0  0  0  0  0  0  0  0  0  0  0  0
   49.3370   55.9190   20.2320 C   0  0  0  0  0  0  0  0  0  0  0  0
   49.0370   55.9540   18.8730 C   0  0  0  0  0  0  0  0  0  0  0  0
   48.3120   57.0030   18.3540 C   0  0  0  0  0  0  0  0  0  0  0  0
   47.8880   58.0400   19.1900 C   0  0  0  0  0  0  0  0  0  0  0  0
   47.1180   59.1690   18.6360 C   0  0  0  0  0  0  0  0  0  0  0  0
   46.5740   60.0850   19.4630 N   0  0  0  0  0  0  0  0  0  0  0  0
   46.7060   59.9890   20.5510 H   0  0  0  0  0  0  0  0  0  0  0  0
   46.9740   59.2750   17.4340 O   0  0  0  0  0  0  0  0  0  0  0  0
   45.8090   61.2060   18.9130 C   0  0  0  0  0  0  0  0  0  0  0  0
   46.1820   62.4910   19.6560 C   0  0  0  0  0  0  0  0  0  0  0  0
   45.3840   63.6620   19.0830 C   0  0  0  0  0  0  0  0  0  0  0  0
   43.8870   63.3910   19.2520 C   0  0  0  0  0  0  0  0  0  0  0  0
   43.5150   62.1070   18.5090 C   0  0  0  0  0  0  0  0  0  0  0  0
   44.3130   60.9350   19.0820 C   0  0  0  0  0  0  0  0  0  0  0  0
   50.0650   54.8520   20.7550 N   0  0  0  0  0  0  0  0  0  0  0  0
   49.5630   54.0960   21.3750 H   0  0  0  0  0  0  0  0  0  0  0  0
   51.3850   54.7480   20.5000 C   0  0  0  0  0  0  0  0  0  0  0  0
   52.0480   53.2450   20.0220 S   0  0  0  0  0  0  0  0  0  0  0  0
   52.1800   55.8290   20.6220 N   0  0  0  0  0  0  0  0  0  0  0  0
   52.5680   56.3320   19.7230 H   0  0  0  0  0  0  0  0  0  0  0  0
   52.5010   56.2960   21.8450 C   0  0  0  0  0  0  0  0  0  0  0  0
   52.0730   55.7420   22.8360 O   0  0  0  0  0  0  0  0  0  0  0  0
   53.3900   57.5040   21.9820 C   0  0  0  0  0  0  0  0  0  0  0  0
   52.9190   58.8060   21.3320 C   0  0  0  0  0  0  0  0  0  0  0  0
   54.0800   58.0210   20.7180 C   0  0  0  0  0  0  0  0  0  0  0  0
  1  2  1  0  0  0  0
  3 17  1  0  0  0  0
  3  2  2  0  0  0  0
  4  3  1  0  0  0  0
  5  4  2  0  0  0  0
  5  6  1  0  0  0  0
  6  1  2  0  0  0  0
  7  6  1  0  0  0  0
  7  8  1  0  0  0  0
  8  9  1  0  0  0  0
 10  7  2  0  0  0  0
 11 16  1  0  0  0  0
 11  8  1  0  0  0  0
 11 12  1  0  0  0  0
 13 14  1  0  0  0  0
 13 12  1  0  0  0  0
 15 16  1  0  0  0  0
 15 14  1  0  0  0  0
 17 18  1  0  0  0  0
 19 21  1  0  0  0  0
 19 17  1  0  0  0  0
 20 19  2  0  0  0  0
 21 23  1  0  0  0  0
 22 21  1  0  0  0  0
 23 25  1  0  0  0  0
 23 24  2  0  0  0  0
 26 25  1  0  0  0  0
 27 26  1  0  0  0  0
 27 25  1  0  0  0  0
M  END
>  <MODEL>
2

>  <REMARK>
  Name = ZINC20058656
                            x       y       z     vdW  Elec       q    Type
                         _______ _______ _______ _____ _____    ______ ____

>  <TORSDO>
F 6

>  <minimizedAffinity>
-8.4568089097010333

$$$$
ZINC20058656
 OpenBabel10211215533D

 27 29  0  0  0  0  0  0  0  0999 V2000
   48.8060   51.8260   17.5420 C   0  0  0  0  0  0  0  0  0  0  0  0
   49.5160   52.8910   18.0480 C   0  0  0  0  0  0  0  0  0  0  0  0
   50.5010   52.6790   19.0080 C   0  0  0  0  0  0  0  0  0  0  0  0
   50.7750   51.3900   19.4560 C   0  0  0  0  0  0  0  0  0  0  0  0
   50.0640   50.3220   18.9590 C   0  0  0  0  0  0  0  0  0  0  0  0
   49.0750   50.5300   17.9930 C   0  0  0  0  0  0  0  0  0  0  0  0
   48.3160   49.3870   17.4530 C   0  0  0  0  0  0  0  0  0  0  0  0
   47.2620   49.6010   16.6390 N   0  0  0  0  0  0  0  0  0  0  0  0
   46.9690   50.6290   16.3780 H   0  0  0  0  0  0  0  0  0  0  0  0
   48.6400   48.2510   17.7410 O   0  0  0  0  0  0  0  0  0  0  0  0
   46.5080   48.4650   16.1020 C   0  0  0  0  0  0  0  0  0  0  0  0
   46.4870   48.5440   14.5740 C   0  0  0  0  0  0  0  0  0  0  0  0
   45.7000   47.3590   14.0130 C   0  0  0  0  0  0  0  0  0  0  0  0
   44.2650   47.4010   14.5460 C   0  0  0  0  0  0  0  0  0  0  0  0
   44.2870   47.3220   16.0730 C   0  0  0  0  0  0  0  0  0  0  0  0
   45.0750   48.5070   16.6350 C   0  0  0  0  0  0  0  0  0  0  0  0
   51.2190   53.7590   19.5180 N   0  0  0  0  0  0  0  0  0  0  0  0
   52.1020   54.1350   18.9810 H   0  0  0  0  0  0  0  0  0  0  0  0
   50.8310   54.3430   20.6700 C   0  0  0  0  0  0  0  0  0  0  0  0
   51.5020   53.8290   22.1580 S   0  0  0  0  0  0  0  0  0  0  0  0
   49.9160   55.3320   20.6480 N   0  0  0  0  0  0  0  0  0  0  0  0
   48.8780   55.1300   20.9540 H   0  0  0  0  0  0  0  0  0  0  0  0
   50.2720   56.5700   20.2520 C   0  0  0  0  0  0  0  0  0  0  0  0
   51.4150   56.7940   19.9150 O   0  0  0  0  0  0  0  0  0  0  0  0
   49.2490   57.6770   20.2280 C   0  0  0  0  0  0  0  0  0  0  0  0
   48.6640   58.1280   21.5670 C   0  0  0  0  0  0  0  0  0  0  0  0
   47.8080   57.3150   20.5930 C   0  0  0  0  0  0  0  0  0  0  0  0
  1  6  2  0  0  0  0
  1  2  1  0  0  0  0
  2  3  2  0  0  0  0
  3  4  1  0  0  0  0
  3 17  1  0  0  0  0
  5  4  2  0  0  0  0
  6  5  1  0  0  0  0
  7 10  2  0  0  0  0
  7  6  1  0  0  0  0
  8  7  1  0  0  0  0
  9  8  1  0  0  0  0
 11 16  1  0  0  0  0
 11  8  1  0  0  0  0
 12 11  1  0  0  0  0
 13 14  1  0  0  0  0
 13 12  1  0  0  0  0
 14 15  1  0  0  0  0
 15 16  1  0  0  0  0
 17 19  1  0  0  0  0
 18 17  1  0  0  0  0
 19 20  2  0  0  0  0
 21 19  1  0  0  0  0
 21 22  1  0  0  0  0
 23 21  1  0  0  0  0
 24 23  2  0  0  0  0
 25 23  1  0  0  0  0
 25 27  1  0  0  0  0
 25 26  1  0  0  0  0
 27 26  1  0  0  0  0
M  END
>  <MODEL>
3

>  <REMARK>
  Name = ZINC20058656
                            x       y       z     vdW  Elec       q    Type
                         _______ _______ _______ _____ _____    ______ ____

>  <TORSDO>
F 6

>  <minimizedAffinity>
-8.3101527348019246

$$$$
ZINC20058656
 OpenBabel10211215533D

 27 29  0  0  0  0  0  0  0  0999 V2000
   50.4610   50.6430   19.7220 C   0  0  0  0  0  0  0  0  0  0  0  0
   50.1990   49.6720   18.7820 C   0  0  0  0  0  0  0  0  0  0  0  0
   49.6700   50.0250   17.5440 C   0  0  0  0  0  0  0  0  0  0  0  0
   49.4080   51.3600   17.2510 C   0  0  0  0  0  0  0  0  0  0  0  0
   49.6610   52.3350   18.1890 C   0  0  0  0  0  0  0  0  0  0  0  0
   50.1930   51.9850   19.4330 C   0  0  0  0  0  0  0  0  0  0  0  0
   50.4730   53.0280   20.4380 C   0  0  0  0  0  0  0  0  0  0  0  0
   50.4600   54.3280   20.0820 N   0  0  0  0  0  0  0  0  0  0  0  0
   50.2410   54.6110   19.0420 H   0  0  0  0  0  0  0  0  0  0  0  0
   50.7150   52.7150   21.5880 O   0  0  0  0  0  0  0  0  0  0  0  0
   50.7380   55.3640   21.0800 C   0  0  0  0  0  0  0  0  0  0  0  0
   49.7440   56.5150   20.9110 C   0  0  0  0  0  0  0  0  0  0  0  0
   50.0330   57.5960   21.9520 C   0  0  0  0  0  0  0  0  0  0  0  0
   51.4580   58.1210   21.7610 C   0  0  0  0  0  0  0  0  0  0  0  0
   52.4510   56.9700   21.9310 C   0  0  0  0  0  0  0  0  0  0  0  0
   52.1620   55.8880   20.8890 C   0  0  0  0  0  0  0  0  0  0  0  0
   49.4070   49.0400   16.5940 N   0  0  0  0  0  0  0  0  0  0  0  0
   50.1390   48.2390   16.4170 H   0  0  0  0  0  0  0  0  0  0  0  0
   48.2560   49.0700   15.8930 C   0  0  0  0  0  0  0  0  0  0  0  0
   48.2670   49.5420   14.2490 S   0  0  0  0  0  0  0  0  0  0  0  0
   47.0970   48.7270   16.4890 N   0  0  0  0  0  0  0  0  0  0  0  0
   46.3250   49.4890   16.6720 H   0  0  0  0  0  0  0  0  0  0  0  0
   46.8820   47.4490   16.8590 C   0  0  0  0  0  0  0  0  0  0  0  0
   47.7320   46.6080   16.6570 O   0  0  0  0  0  0  0  0  0  0  0  0
   45.5860   47.0640   17.5240 C   0  0  0  0  0  0  0  0  0  0  0  0
   44.6200   48.1910   17.8950 C   0  0  0  0  0  0  0  0  0  0  0  0
   45.3990   47.4600   18.9900 C   0  0  0  0  0  0  0  0  0  0  0  0
  2  1  2  0  0  0  0
  3  2  1  0  0  0  0
  4  3  2  0  0  0  0
  4  5  1  0  0  0  0
  5  6  2  0  0  0  0
  6  1  1  0  0  0  0
  6  7  1  0  0  0  0
  7 10  2  0  0  0  0
  8  7  1  0  0  0  0
  8 11  1  0  0  0  0
  9  8  1  0  0  0  0
 12 11  1  0  0  0  0
 12 13  1  0  0  0  0
 14 15  1  0  0  0  0
 14 13  1  0  0  0  0
 16 11  1  0  0  0  0
 16 15  1  0  0  0  0
 17  3  1  0  0  0  0
 18 17  1  0  0  0  0
 19 21  1  0  0  0  0
 19 17  1  0  0  0  0
 20 19  2  0  0  0  0
 21 22  1  0  0  0  0
 21 23  1  0  0  0  0
 23 25  1  0  0  0  0
 24 23  2  0  0  0  0
 25 26  1  0  0  0  0
 25 27  1  0  0  0  0
 26 27  1  0  0  0  0
M  END
>  <MODEL>
4

>  <REMARK>
  Name = ZINC20058656
                            x       y       z     vdW  Elec       q    Type
                         _______ _______ _______ _____ _____    ______ ____

>  <TORSDO>
F 6

>  <minimizedAffinity>
-8.1959398734307349

$$$$
ZINC20058656
 OpenBabel10211215533D

 27 29  0  0  0  0  0  0  0  0999 V2000
   48.3460   57.1140   18.6160 C   0  0  0  0  0  0  0  0  0  0  0  0
   49.1170   56.1220   19.1780 C   0  0  0  0  0  0  0  0  0  0  0  0
   49.4780   56.1960   20.5200 C   0  0  0  0  0  0  0  0  0  0  0  0
   49.0580   57.2700   21.2990 C   0  0  0  0  0  0  0  0  0  0  0  0
   48.2930   58.2690   20.7410 C   0  0  0  0  0  0  0  0  0  0  0  0
   47.9270   58.1980   19.3940 C   0  0  0  0  0  0  0  0  0  0  0  0
   47.1010   59.2630   18.7950 C   0  0  0  0  0  0  0  0  0  0  0  0
   46.5490   60.2100   19.5790 N   0  0  0  0  0  0  0  0  0  0  0  0
   46.7150   60.1890   20.6660 H   0  0  0  0  0  0  0  0  0  0  0  0
   46.9170   59.2870   17.5930 O   0  0  0  0  0  0  0  0  0  0  0  0
   45.7280   61.2680   18.9840 C   0  0  0  0  0  0  0  0  0  0  0  0
   46.0450   62.6020   19.6630 C   0  0  0  0  0  0  0  0  0  0  0  0
   45.1890   63.7070   19.0430 C   0  0  0  0  0  0  0  0  0  0  0  0
   43.7070   63.3740   19.2370 C   0  0  0  0  0  0  0  0  0  0  0  0
   43.3910   62.0400   18.5580 C   0  0  0  0  0  0  0  0  0  0  0  0
   44.2480   60.9350   19.1790 C   0  0  0  0  0  0  0  0  0  0  0  0
   50.2580   55.1900   21.0870 N   0  0  0  0  0  0  0  0  0  0  0  0
   49.8810   54.6240   21.9510 H   0  0  0  0  0  0  0  0  0  0  0  0
   51.4730   54.9100   20.5760 C   0  0  0  0  0  0  0  0  0  0  0  0
   52.6220   56.1610   20.3650 S   0  0  0  0  0  0  0  0  0  0  0  0
   51.7840   53.6450   20.2310 N   0  0  0  0  0  0  0  0  0  0  0  0
   51.9530   53.3860   19.1750 H   0  0  0  0  0  0  0  0  0  0  0  0
   51.8880   52.6940   21.1820 C   0  0  0  0  0  0  0  0  0  0  0  0
   51.7020   52.9790   22.3460 O   0  0  0  0  0  0  0  0  0  0  0  0
   52.2350   51.2790   20.7980 C   0  0  0  0  0  0  0  0  0  0  0  0
   51.5790   50.7070   19.5410 C   0  0  0  0  0  0  0  0  0  0  0  0
   51.1360   50.2230   20.9240 C   0  0  0  0  0  0  0  0  0  0  0  0
  1  2  2  0  0  0  0
  1  6  1  0  0  0  0
  2  3  1  0  0  0  0
  3 17  1  0  0  0  0
  3  4  2  0  0  0  0
  5  4  1  0  0  0  0
  6  5  2  0  0  0  0
  7  6  1  0  0  0  0
  7  8  1  0  0  0  0
  8  9  1  0  0  0  0
 10  7  2  0  0  0  0
 11 16  1  0  0  0  0
 11  8  1  0  0  0  0
 11 12  1  0  0  0  0
 13 14  1  0  0  0  0
 13 12  1  0  0  0  0
 15 16  1  0  0  0  0
 15 14  1  0  0  0  0
 17 18  1  0  0  0  0
 19 17  1  0  0  0  0
 20 19  2  0  0  0  0
 21 19  1  0  0  0  0
 21 23  1  0  0  0  0
 22 21  1  0  0  0  0
 23 24  2  0  0  0  0
 25 27  1  0  0  0  0
 25 23  1  0  0  0  0
 26 25  1  0  0  0  0
 26 27  1  0  0  0  0
M  END
>  <MODEL>
5

>  <REMARK>
  Name = ZINC20058656
                            x       y       z     vdW  Elec       q    Type
                         _______ _______ _______ _____ _____    ______ ____

>  <TORSDO>
F 6

>  <minimizedAffinity>
-8.0789591895469464

$$$$
ZINC20058656
 OpenBabel10211215533D

 27 29  0  0  0  0  0  0  0  0999 V2000
   49.6630   52.1940   18.3670 C   0  0  0  0  0  0  0  0  0  0  0  0
   49.5210   50.8740   18.0020 C   0  0  0  0  0  0  0  0  0  0  0  0
   48.4110   50.4690   17.2690 C   0  0  0  0  0  0  0  0  0  0  0  0
   47.4420   51.3960   16.8970 C   0  0  0  0  0  0  0  0  0  0  0  0
   47.5740   52.7170   17.2640 C   0  0  0  0  0  0  0  0  0  0  0  0
   48.6890   53.1280   18.0000 C   0  0  0  0  0  0  0  0  0  0  0  0
   48.8380   54.5430   18.3890 C   0  0  0  0  0  0  0  0  0  0  0  0
   49.0470   54.8690   19.6800 N   0  0  0  0  0  0  0  0  0  0  0  0
   49.1060   54.0790   20.4440 H   0  0  0  0  0  0  0  0  0  0  0  0
   48.7730   55.4150   17.5450 O   0  0  0  0  0  0  0  0  0  0  0  0
   49.1940   56.2740   20.0670 C   0  0  0  0  0  0  0  0  0  0  0  0
   50.0870   56.3710   21.3060 C   0  0  0  0  0  0  0  0  0  0  0  0
   50.2420   57.8370   21.7100 C   0  0  0  0  0  0  0  0  0  0  0  0
   48.8650   58.4280   22.0260 C   0  0  0  0  0  0  0  0  0  0  0  0
   47.9740   58.3310   20.7870 C   0  0  0  0  0  0  0  0  0  0  0  0
   47.8180   56.8640   20.3830 C   0  0  0  0  0  0  0  0  0  0  0  0
   48.2700   49.1320   16.9000 N   0  0  0  0  0  0  0  0  0  0  0  0
   48.1470   48.3600   17.6730 H   0  0  0  0  0  0  0  0  0  0  0  0
   48.2860   48.7870   15.5980 C   0  0  0  0  0  0  0  0  0  0  0  0
   49.3260   49.6000   14.5090 S   0  0  0  0  0  0  0  0  0  0  0  0
   47.4830   47.8000   15.1530 N   0  0  0  0  0  0  0  0  0  0  0  0
   47.9170   46.9100   14.6740 H   0  0  0  0  0  0  0  0  0  0  0  0
   46.1460   47.9040   15.2970 C   0  0  0  0  0  0  0  0  0  0  0  0
   45.6680   48.8850   15.8250 O   0  0  0  0  0  0  0  0  0  0  0  0
   45.2470   46.8010   14.8000 C   0  0  0  0  0  0  0  0  0  0  0  0
   44.1830   47.1680   13.7660 C   0  0  0  0  0  0  0  0  0  0  0  0
   43.7740   46.8540   15.2060 C   0  0  0  0  0  0  0  0  0  0  0  0
  2  1  1  0  0  0  0
  3  2  2  0  0  0  0
  4  5  2  0  0  0  0
  4  3  1  0  0  0  0
  5  6  1  0  0  0  0
  6  1  2  0  0  0  0
  6  7  1  0  0  0  0
  7  8  1  0  0  0  0
  8 11  1  0  0  0  0
  8  9  1  0  0  0  0
 10  7  2  0  0  0  0
 11 16  1  0  0  0  0
 11 12  1  0  0  0  0
 12 13  1  0  0  0  0
 13 14  1  0  0  0  0
 15 14  1  0  0  0  0
 16 15  1  0  0  0  0
 17  3  1  0  0  0  0
 17 18  1  0  0  0  0
 19 17  1  0  0  0  0
 20 19  2  0  0  0  0
 21 23  1  0  0  0  0
 21 19  1  0  0  0  0
 22 21  1  0  0  0  0
 23 24  2  0  0  0  0
 25 27  1  0  0  0  0
 25 23  1  0  0  0  0
 26 25  1  0  0  0  0
 26 27  1  0  0  0  0
M  END
>  <MODEL>
6

>  <REMARK>
  Name = ZINC20058656
                            x       y       z     vdW  Elec       q    Type
                         _______ _______ _______ _____ _____    ______ ____

>  <TORSDO>
F 6

>  <minimizedAffinity>
-8.0583549640783243

$$$$
ZINC20058656
 OpenBabel10211215533D

 27 29  0  0  0  0  0  0  0  0999 V2000
   47.7550   58.0180   18.2300 C   0  0  0  0  0  0  0  0  0  0  0  0
   48.4120   56.8360   18.4880 C   0  0  0  0  0  0  0  0  0  0  0  0
   48.7990   56.5230   19.7870 C   0  0  0  0  0  0  0  0  0  0  0  0
   48.5200   57.4010   20.8300 C   0  0  0  0  0  0  0  0  0  0  0  0
   47.8690   58.5870   20.5780 C   0  0  0  0  0  0  0  0  0  0  0  0
   47.4780   58.9050   19.2750 C   0  0  0  0  0  0  0  0  0  0  0  0
   46.7740   60.1720   19.0010 C   0  0  0  0  0  0  0  0  0  0  0  0
   47.3000   61.0640   18.1390 N   0  0  0  0  0  0  0  0  0  0  0  0
   48.2560   60.8450   17.6380 H   0  0  0  0  0  0  0  0  0  0  0  0
   45.7180   60.4130   19.5540 O   0  0  0  0  0  0  0  0  0  0  0  0
   46.6020   62.3220   17.8670 C   0  0  0  0  0  0  0  0  0  0  0  0
   45.6020   62.1150   16.7280 C   0  0  0  0  0  0  0  0  0  0  0  0
   44.8720   63.4290   16.4440 C   0  0  0  0  0  0  0  0  0  0  0  0
   45.8880   64.5010   16.0430 C   0  0  0  0  0  0  0  0  0  0  0  0
   46.8870   64.7070   17.1820 C   0  0  0  0  0  0  0  0  0  0  0  0
   47.6180   63.3930   17.4660 C   0  0  0  0  0  0  0  0  0  0  0  0
   49.4630   55.3250   20.0460 N   0  0  0  0  0  0  0  0  0  0  0  0
   48.9970   54.5680   20.6920 H   0  0  0  0  0  0  0  0  0  0  0  0
   50.6760   55.0970   19.5040 C   0  0  0  0  0  0  0  0  0  0  0  0
   51.0310   53.5720   18.8130 S   0  0  0  0  0  0  0  0  0  0  0  0
   51.6080   56.0700   19.5070 N   0  0  0  0  0  0  0  0  0  0  0  0
   51.7540   56.6960   18.6140 H   0  0  0  0  0  0  0  0  0  0  0  0
   52.3630   56.2770   20.6040 C   0  0  0  0  0  0  0  0  0  0  0  0
   52.2030   55.5870   21.5890 O   0  0  0  0  0  0  0  0  0  0  0  0
   53.4060   57.3650   20.6080 C   0  0  0  0  0  0  0  0  0  0  0  0
   53.9780   57.7910   21.9600 C   0  0  0  0  0  0  0  0  0  0  0  0
   53.0160   58.7150   21.2120 C   0  0  0  0  0  0  0  0  0  0  0  0
  1  2  2  0  0  0  0
  1  6  1  0  0  0  0
  2  3  1  0  0  0  0
  3 17  1  0  0  0  0
  3  4  2  0  0  0  0
  5  4  1  0  0  0  0
  6  5  2  0  0  0  0
  7  6  1  0  0  0  0
  7 10  2  0  0  0  0
  8  7  1  0  0  0  0
  9  8  1  0  0  0  0
 11  8  1  0  0  0  0
 12 11  1  0  0  0  0
 13 12  1  0  0  0  0
 14 13  1  0  0  0  0
 14 15  1  0  0  0  0
 15 16  1  0  0  0  0
 16 11  1  0  0  0  0
 17 18  1  0  0  0  0
 19 21  1  0  0  0  0
 19 17  1  0  0  0  0
 20 19  2  0  0  0  0
 21 23  1  0  0  0  0
 22 21  1  0  0  0  0
 23 25  1  0  0  0  0
 23 24  2  0  0  0  0
 25 27  1  0  0  0  0
 25 26  1  0  0  0  0
 27 26  1  0  0  0  0
M  END
>  <MODEL>
7

>  <REMARK>
  Name = ZINC20058656
                            x       y       z     vdW  Elec       q    Type
                         _______ _______ _______ _____ _____    ______ ____

>  <TORSDO>
F 6

>  <minimizedAffinity>
-7.9789365477325012

$$$$
ZINC20058656
 OpenBabel10211215533D

 27 29  0  0  0  0  0  0  0  0999 V2000
   48.8930   50.2560   18.0410 C   0  0  0  0  0  0  0  0  0  0  0  0
   49.8950   51.1140   18.4350 C   0  0  0  0  0  0  0  0  0  0  0  0
   49.7440   52.4860   18.2650 C   0  0  0  0  0  0  0  0  0  0  0  0
   48.5800   52.9970   17.7000 C   0  0  0  0  0  0  0  0  0  0  0  0
   47.5760   52.1450   17.2970 C   0  0  0  0  0  0  0  0  0  0  0  0
   47.7230   50.7650   17.4680 C   0  0  0  0  0  0  0  0  0  0  0  0
   46.6480   49.8490   17.0440 C   0  0  0  0  0  0  0  0  0  0  0  0
   46.8800   48.9370   16.0790 N   0  0  0  0  0  0  0  0  0  0  0  0
   47.8730   48.8760   15.6080 H   0  0  0  0  0  0  0  0  0  0  0  0
   45.5510   49.9160   17.5650 O   0  0  0  0  0  0  0  0  0  0  0  0
   45.8120   48.0270   15.6580 C   0  0  0  0  0  0  0  0  0  0  0  0
   46.2030   46.5880   16.0020 C   0  0  0  0  0  0  0  0  0  0  0  0
   45.0880   45.6370   15.5630 C   0  0  0  0  0  0  0  0  0  0  0  0
   44.8770   45.7620   14.0510 C   0  0  0  0  0  0  0  0  0  0  0  0
   44.4870   47.2000   13.7080 C   0  0  0  0  0  0  0  0  0  0  0  0
   45.6020   48.1510   14.1480 C   0  0  0  0  0  0  0  0  0  0  0  0
   50.7600   53.3520   18.6660 N   0  0  0  0  0  0  0  0  0  0  0  0
   51.6020   53.5620   17.9890 H   0  0  0  0  0  0  0  0  0  0  0  0
   50.7110   53.9310   19.8820 C   0  0  0  0  0  0  0  0  0  0  0  0
   50.8860   52.9780   21.2920 S   0  0  0  0  0  0  0  0  0  0  0  0
   50.5240   55.2620   19.9860 N   0  0  0  0  0  0  0  0  0  0  0  0
   51.3890   55.9420   19.9690 H   0  0  0  0  0  0  0  0  0  0  0  0
   49.2780   55.7600   20.1090 C   0  0  0  0  0  0  0  0  0  0  0  0
   48.3250   55.0100   20.1280 O   0  0  0  0  0  0  0  0  0  0  0  0
   49.0690   57.2480   20.2260 C   0  0  0  0  0  0  0  0  0  0  0  0
   48.9260   57.8340   21.6310 C   0  0  0  0  0  0  0  0  0  0  0  0
   47.7030   57.7340   20.7150 C   0  0  0  0  0  0  0  0  0  0  0  0
  1  2  2  0  0  0  0
  3  2  1  0  0  0  0
  3 17  1  0  0  0  0
  4  3  2  0  0  0  0
  5  6  2  0  0  0  0
  5  4  1  0  0  0  0
  6  1  1  0  0  0  0
  7  6  1  0  0  0  0
  7 10  2  0  0  0  0
  8  7  1  0  0  0  0
  9  8  1  0  0  0  0
 11 12  1  0  0  0  0
 11  8  1  0  0  0  0
 13 12  1  0  0  0  0
 14 13  1  0  0  0  0
 15 14  1  0  0  0  0
 15 16  1  0  0  0  0
 16 11  1  0  0  0  0
 17 19  1  0  0  0  0
 18 17  1  0  0  0  0
 19 21  1  0  0  0  0
 19 20  2  0  0  0  0
 21 23  1  0  0  0  0
 22 21  1  0  0  0  0
 23 24  2  0  0  0  0
 23 25  1  0  0  0  0
 25 27  1  0  0  0  0
 25 26  1  0  0  0  0
 27 26  1  0  0  0  0
M  END
>  <MODEL>
8

>  <REMARK>
  Name = ZINC20058656
                            x       y       z     vdW  Elec       q    Type
                         _______ _______ _______ _____ _____    ______ ____

>  <TORSDO>
F 6

>  <minimizedAffinity>
-7.8303483239537499

$$$$
ZINC20058656
 OpenBabel10211215533D

 27 29  0  0  0  0  0  0  0  0999 V2000
   44.6770   60.5130   19.1220 C   0  0  0  0  0  0  0  0  0  0  0  0
   43.5900   61.3530   19.2030 C   0  0  0  0  0  0  0  0  0  0  0  0
   43.7710   62.7030   19.4870 C   0  0  0  0  0  0  0  0  0  0  0  0
   45.0520   63.2100   19.6850 C   0  0  0  0  0  0  0  0  0  0  0  0
   46.1440   62.3740   19.6120 C   0  0  0  0  0  0  0  0  0  0  0  0
   45.9650   61.0170   19.3260 C   0  0  0  0  0  0  0  0  0  0  0  0
   47.1330   60.1200   19.2390 C   0  0  0  0  0  0  0  0  0  0  0  0
   47.2570   59.0900   20.0990 N   0  0  0  0  0  0  0  0  0  0  0  0
   46.4870   58.9180   20.8660 H   0  0  0  0  0  0  0  0  0  0  0  0
   47.9840   60.3100   18.3910 O   0  0  0  0  0  0  0  0  0  0  0  0
   48.4170   58.1990   20.0140 C   0  0  0  0  0  0  0  0  0  0  0  0
   48.0150   56.9060   19.3000 C   0  0  0  0  0  0  0  0  0  0  0  0
   49.2250   55.9760   19.2100 C   0  0  0  0  0  0  0  0  0  0  0  0
   49.7220   55.6470   20.6200 C   0  0  0  0  0  0  0  0  0  0  0  0
   50.1230   56.9390   21.3330 C   0  0  0  0  0  0  0  0  0  0  0  0
   48.9130   57.8700   21.4230 C   0  0  0  0  0  0  0  0  0  0  0  0
   42.6680   63.5510   19.5680 N   0  0  0  0  0  0  0  0  0  0  0  0
   42.3840   63.9910   20.5350 H   0  0  0  0  0  0  0  0  0  0  0  0
   41.9510   63.8310   18.4620 C   0  0  0  0  0  0  0  0  0  0  0  0
   40.4210   63.1010   18.2270 S   0  0  0  0  0  0  0  0  0  0  0  0
   42.4390   64.6860   17.5420 N   0  0  0  0  0  0  0  0  0  0  0  0
   42.6850   64.3280   16.5320 H   0  0  0  0  0  0  0  0  0  0  0  0
   42.6250   65.9830   17.8600 C   0  0  0  0  0  0  0  0  0  0  0  0
   42.3540   66.3790   18.9740 O   0  0  0  0  0  0  0  0  0  0  0  0
   43.1700   66.9410   16.8320 C   0  0  0  0  0  0  0  0  0  0  0  0
   42.2500   68.0660   16.3560 C   0  0  0  0  0  0  0  0  0  0  0  0
   42.5640   66.8900   15.4280 C   0  0  0  0  0  0  0  0  0  0  0  0
  1  2  2  0  0  0  0
  1  6  1  0  0  0  0
  2  3  1  0  0  0  0
  3 17  1  0  0  0  0
  3  4  2  0  0  0  0
  5  4  1  0  0  0  0
  6  5  2  0  0  0  0
  7  6  1  0  0  0  0
  7  8  1  0  0  0  0
  8  9  1  0  0  0  0
 10  7  2  0  0  0  0
 11  8  1  0  0  0  0
 11 16  1  0  0  0  0
 12 11  1  0  0  0  0
 13 12  1  0  0  0  0
 13 14  1  0  0  0  0
 14 15  1  0  0  0  0
 15 16  1  0  0  0  0
 17 18  1  0  0  0  0
 19 17  1  0  0  0  0
 20 19  2  0  0  0  0
 21 23  1  0  0  0  0
 21 19  1  0  0  0  0
 22 21  1  0  0  0  0
 23 24  2  0  0  0  0
 25 23  1  0  0  0  0
 26 25  1  0  0  0  0
 27 26  1  0  0  0  0
 27 25  1  0  0  0  0
M  END
>  <MODEL>
9

>  <REMARK>
  Name = ZINC20058656
                            x       y       z     vdW  Elec       q    Type
                         _______ _______ _______ _____ _____    ______ ____

>  <TORSDO>
F 6

>  <minimizedAffinity>
-7.701575600142144

$$$$
ZINC66762079
 OpenBabel10211215543D

 26 27  0  0  1  0  0  0  0  0999 V2000
   49.6990   56.2560   21.0710 C   0  0  0  0  0  0  0  0  0  0  0  0
   48.7890   55.9990   20.0620 C   0  0  0  0  0  0  0  0  0  0  0  0
   47.8180   56.9320   19.7500 C   0  0  0  0  0  0  0  0  0  0  0  0
   47.7580   58.1290   20.4520 C   0  0  0  0  0  0  0  0  0  0  0  0
   48.6750   58.3840   21.4640 C   0  0  0  0  0  0  0  0  0  0  0  0
   49.6380   57.4450   21.7740 C   0  0  0  0  0  0  0  0  0  0  0  0
   46.7780   59.0760   20.1380 N   0  0  0  0  0  0  0  0  0  0  0  0
   45.9510   59.1050   20.6450 H   0  0  0  0  0  0  0  0  0  0  0  0
   46.9810   59.9490   19.1310 C   0  0  0  0  0  0  0  0  0  0  0  0
   46.0860   60.9290   18.8970 N   0  0  0  0  0  0  0  0  0  0  0  0
   45.2950   61.0060   19.4540 H   0  0  0  0  0  0  0  0  0  0  0  0
   47.9720   59.8510   18.4330 O   0  0  0  0  0  0  0  0  0  0  0  0
   46.3080   61.8770   17.8030 C   0  0  0  0  0  0  0  0  0  0  0  0
   46.7490   63.2940   18.1750 C   0  0  0  0  0  0  0  0  0  0  0  0
   45.3270   63.0450   17.6700 C   0  0  0  0  0  0  0  0  0  0  0  0
   50.7560   55.2360   21.4070 C   0  0  2  0  0  0  0  0  0  0  0  0
   52.1270   55.9140   21.4390 C   0  0  0  0  0  0  0  0  0  0  0  0
   50.7190   52.8860   20.7640 C   0  0  0  0  0  0  0  0  0  0  0  0
   50.7560   54.1810   20.3900 N   0  0  0  0  0  0  0  0  0  0  0  0
   50.7840   54.4130   19.4490 H   0  0  0  0  0  0  0  0  0  0  0  0
   50.6850   52.5950   21.9400 O   0  0  0  0  0  0  0  0  0  0  0  0
   49.9240   52.2670   18.4970 C   0  0  0  0  0  0  0  0  0  0  0  0
   50.7200   51.8010   19.7180 C   0  0  1  0  0  0  0  0  0  0  0  0
   52.1600   51.4940   19.3010 C   0  0  0  0  0  0  0  0  0  0  0  0
   52.5820   49.7970   19.7820 S   0  0  0  0  0  0  0  0  0  0  0  0
   50.9890   49.0610   20.2400 C   0  0  0  0  0  0  0  0  0  0  0  0
  1 16  1  0  0  0  0
  1  6  2  0  0  0  0
  2  1  1  0  0  0  0
  3  2  2  0  0  0  0
  3  4  1  0  0  0  0
  4  5  2  0  0  0  0
  5  6  1  0  0  0  0
  7  4  1  0  0  0  0
  7  8  1  0  0  0  0
  9  7  1  0  0  0  0
 10  9  1  0  0  0  0
 10 11  1  0  0  0  0
 12  9  2  0  0  0  0
 13 14  1  0  0  0  0
 13 10  1  0  0  0  0
 15 13  1  0  0  0  0
 15 14  1  0  0  0  0
 16 19  1  6  0  0  0
 16 17  1  0  0  0  0
 18 21  2  0  0  0  0
 19 18  1  0  0  0  0
 20 19  1  0  0  0  0
 23 22  1  6  0  0  0
 23 18  1  0  0  0  0
 24 23  1  0  0  0  0
 24 25  1  0  0  0  0
 25 26  1  0  0  0  0
M  END
>  <MODEL>
1

>  <REMARK>
  Name = ZINC66762079
                            x       y       z     vdW  Elec       q    Type
                         _______ _______ _______ _____ _____    ______ ____

>  <TORSDO>
F 7

>  <minimizedAffinity>
-7.1622497602033883

$$$$
ZINC66762079
 OpenBabel10211215543D

 26 27  0  0  1  0  0  0  0  0999 V2000
   50.4940   54.6080   20.4360 C   0  0  0  0  0  0  0  0  0  0  0  0
   49.2910   54.4480   19.7720 C   0  0  0  0  0  0  0  0  0  0  0  0
   48.3250   55.4330   19.8420 C   0  0  0  0  0  0  0  0  0  0  0  0
   48.5630   56.5850   20.5800 C   0  0  0  0  0  0  0  0  0  0  0  0
   49.7730   56.7430   21.2450 C   0  0  0  0  0  0  0  0  0  0  0  0
   50.7310   55.7510   21.1760 C   0  0  0  0  0  0  0  0  0  0  0  0
   47.5880   57.5850   20.6510 N   0  0  0  0  0  0  0  0  0  0  0  0
   46.8820   57.5280   21.3140 H   0  0  0  0  0  0  0  0  0  0  0  0
   47.6280   58.6290   19.7990 C   0  0  0  0  0  0  0  0  0  0  0  0
   46.7540   59.6460   19.9360 N   0  0  0  0  0  0  0  0  0  0  0  0
   46.0960   59.6260   20.6470 H   0  0  0  0  0  0  0  0  0  0  0  0
   48.4550   58.6530   18.9060 O   0  0  0  0  0  0  0  0  0  0  0  0
   46.7990   60.7800   19.0090 C   0  0  0  0  0  0  0  0  0  0  0  0
   46.6750   62.1830   19.6050 C   0  0  0  0  0  0  0  0  0  0  0  0
   45.5120   61.5830   18.8140 C   0  0  0  0  0  0  0  0  0  0  0  0
   51.5450   53.5310   20.3580 C   0  0  2  0  0  0  0  0  0  0  0  0
   52.6650   53.9790   19.4180 C   0  0  0  0  0  0  0  0  0  0  0  0
   51.4260   51.1000   20.2330 C   0  0  0  0  0  0  0  0  0  0  0  0
   50.9420   52.2970   19.8460 N   0  0  0  0  0  0  0  0  0  0  0  0
   50.1940   52.3420   19.2290 H   0  0  0  0  0  0  0  0  0  0  0  0
   52.3610   51.0440   21.0030 O   0  0  0  0  0  0  0  0  0  0  0  0
   50.3410   48.9660   20.8790 C   0  0  0  0  0  0  0  0  0  0  0  0
   50.8070   49.8310   19.7060 C   0  0  1  0  0  0  0  0  0  0  0  0
   49.6070   50.1780   18.8220 C   0  0  0  0  0  0  0  0  0  0  0  0
   48.9150   48.6560   18.1160 S   0  0  0  0  0  0  0  0  0  0  0  0
   47.2200   48.6060   18.7590 C   0  0  0  0  0  0  0  0  0  0  0  0
  1  6  2  0  0  0  0
  2  3  2  0  0  0  0
  2  1  1  0  0  0  0
  3  4  1  0  0  0  0
  4  7  1  0  0  0  0
  4  5  2  0  0  0  0
  6  5  1  0  0  0  0
  7  8  1  0  0  0  0
  9 10  1  0  0  0  0
  9  7  1  0  0  0  0
 10 11  1  0  0  0  0
 12  9  2  0  0  0  0
 13 14  1  0  0  0  0
 13 10  1  0  0  0  0
 15 13  1  0  0  0  0
 15 14  1  0  0  0  0
 16 17  1  6  0  0  0
 16  1  1  0  0  0  0
 18 21  2  0  0  0  0
 19 18  1  0  0  0  0
 19 16  1  0  0  0  0
 20 19  1  0  0  0  0
 23 24  1  1  0  0  0
 23 18  1  0  0  0  0
 23 22  1  0  0  0  0
 25 26  1  0  0  0  0
 25 24  1  0  0  0  0
M  END
>  <MODEL>
2

>  <REMARK>
  Name = ZINC66762079
                            x       y       z     vdW  Elec       q    Type
                         _______ _______ _______ _____ _____    ______ ____

>  <TORSDO>
F 7

>  <minimizedAffinity>
-7.1510198822661621

$$$$
ZINC66762079
 OpenBabel10211215543D

 26 27  0  0  1  0  0  0  0  0999 V2000
   50.5120   50.6640   19.6070 C   0  0  0  0  0  0  0  0  0  0  0  0
   51.6810   50.8950   20.3090 C   0  0  0  0  0  0  0  0  0  0  0  0
   52.2950   52.1310   20.2450 C   0  0  0  0  0  0  0  0  0  0  0  0
   51.7370   53.1420   19.4740 C   0  0  0  0  0  0  0  0  0  0  0  0
   50.5630   52.9070   18.7700 C   0  0  0  0  0  0  0  0  0  0  0  0
   49.9580   51.6680   18.8340 C   0  0  0  0  0  0  0  0  0  0  0  0
   52.3560   54.3950   19.4070 N   0  0  0  0  0  0  0  0  0  0  0  0
   52.8570   54.6470   18.6150 H   0  0  0  0  0  0  0  0  0  0  0  0
   52.2580   55.2510   20.4430 C   0  0  0  0  0  0  0  0  0  0  0  0
   52.7620   56.4970   20.3390 N   0  0  0  0  0  0  0  0  0  0  0  0
   53.1950   56.7770   19.5180 H   0  0  0  0  0  0  0  0  0  0  0  0
   51.7150   54.8990   21.4730 O   0  0  0  0  0  0  0  0  0  0  0  0
   52.6540   57.4270   21.4650 C   0  0  0  0  0  0  0  0  0  0  0  0
   52.9860   58.8970   21.2010 C   0  0  0  0  0  0  0  0  0  0  0  0
   53.9520   58.0300   22.0100 C   0  0  0  0  0  0  0  0  0  0  0  0
   49.8450   49.3150   19.6800 C   0  0  2  0  0  0  0  0  0  0  0  0
   50.5720   48.4410   20.7030 C   0  0  0  0  0  0  0  0  0  0  0  0
   48.7560   48.3610   17.7190 C   0  0  0  0  0  0  0  0  0  0  0  0
   49.8990   48.6730   18.3630 N   0  0  0  0  0  0  0  0  0  0  0  0
   50.7560   48.4720   17.9560 H   0  0  0  0  0  0  0  0  0  0  0  0
   47.6850   48.6110   18.2290 O   0  0  0  0  0  0  0  0  0  0  0  0
   48.5610   46.1990   16.5210 C   0  0  0  0  0  0  0  0  0  0  0  0
   48.8110   47.7010   16.3660 C   0  0  1  0  0  0  0  0  0  0  0  0
   47.7360   48.3040   15.4590 C   0  0  0  0  0  0  0  0  0  0  0  0
   48.4020   49.7710   14.6250 S   0  0  0  0  0  0  0  0  0  0  0  0
   50.1740   49.4210   14.4690 C   0  0  0  0  0  0  0  0  0  0  0  0
  1 16  1  0  0  0  0
  1  2  2  0  0  0  0
  3  2  1  0  0  0  0
  4  3  2  0  0  0  0
  5  6  2  0  0  0  0
  5  4  1  0  0  0  0
  6  1  1  0  0  0  0
  7  4  1  0  0  0  0
  7  9  1  0  0  0  0
  8  7  1  0  0  0  0
  9 12  2  0  0  0  0
 10  9  1  0  0  0  0
 10 13  1  0  0  0  0
 11 10  1  0  0  0  0
 13 15  1  0  0  0  0
 14 13  1  0  0  0  0
 14 15  1  0  0  0  0
 16 19  1  6  0  0  0
 16 17  1  0  0  0  0
 18 21  2  0  0  0  0
 18 19  1  0  0  0  0
 20 19  1  0  0  0  0
 23 24  1  1  0  0  0
 23 22  1  0  0  0  0
 23 18  1  0  0  0  0
 25 24  1  0  0  0  0
 26 25  1  0  0  0  0
M  END
>  <MODEL>
3

>  <REMARK>
  Name = ZINC66762079
                            x       y       z     vdW  Elec       q    Type
                         _______ _______ _______ _____ _____    ______ ____

>  <TORSDO>
F 7

>  <minimizedAffinity>
-7.0916869079587137

$$$$
ZINC66762079
 OpenBabel10211215543D

 26 27  0  0  1  0  0  0  0  0999 V2000
   49.8060   50.9590   18.7090 C   0  0  0  0  0  0  0  0  0  0  0  0
   49.1160   51.7200   17.7830 C   0  0  0  0  0  0  0  0  0  0  0  0
   48.0030   51.2010   17.1510 C   0  0  0  0  0  0  0  0  0  0  0  0
   47.5770   49.9130   17.4460 C   0  0  0  0  0  0  0  0  0  0  0  0
   48.2710   49.1510   18.3770 C   0  0  0  0  0  0  0  0  0  0  0  0
   49.3860   49.6750   19.0010 C   0  0  0  0  0  0  0  0  0  0  0  0
   46.4500   49.3840   16.8080 N   0  0  0  0  0  0  0  0  0  0  0  0
   45.5710   49.4970   17.2030 H   0  0  0  0  0  0  0  0  0  0  0  0
   46.5840   48.7160   15.6450 C   0  0  0  0  0  0  0  0  0  0  0  0
   45.4910   48.2990   14.9760 N   0  0  0  0  0  0  0  0  0  0  0  0
   44.6070   48.4800   15.3320 H   0  0  0  0  0  0  0  0  0  0  0  0
   47.6930   48.4890   15.1990 O   0  0  0  0  0  0  0  0  0  0  0  0
   45.6380   47.5740   13.7120 C   0  0  0  0  0  0  0  0  0  0  0  0
   45.6100   48.3930   12.4200 C   0  0  0  0  0  0  0  0  0  0  0  0
   44.4190   47.5070   12.7900 C   0  0  0  0  0  0  0  0  0  0  0  0
   51.0190   51.5290   19.3970 C   0  0  2  0  0  0  0  0  0  0  0  0
   51.3260   50.7100   20.6520 C   0  0  0  0  0  0  0  0  0  0  0  0
   51.4890   53.9150   19.2350 C   0  0  0  0  0  0  0  0  0  0  0  0
   50.7560   52.9210   19.7750 N   0  0  0  0  0  0  0  0  0  0  0  0
   50.0550   53.1270   20.4140 H   0  0  0  0  0  0  0  0  0  0  0  0
   52.3660   53.6580   18.4380 O   0  0  0  0  0  0  0  0  0  0  0  0
   50.0750   55.3920   20.6400 C   0  0  0  0  0  0  0  0  0  0  0  0
   51.2190   55.3460   19.6240 C   0  0  1  0  0  0  0  0  0  0  0  0
   52.4780   55.9520   20.2470 C   0  0  0  0  0  0  0  0  0  0  0  0
   52.0400   56.8120   21.7830 S   0  0  0  0  0  0  0  0  0  0  0  0
   52.9290   58.3890   21.6720 C   0  0  0  0  0  0  0  0  0  0  0  0
  1  6  1  0  0  0  0
  2  1  2  0  0  0  0
  3  4  2  0  0  0  0
  3  2  1  0  0  0  0
  4  5  1  0  0  0  0
  5  6  2  0  0  0  0
  7  8  1  0  0  0  0
  7  4  1  0  0  0  0
  9  7  1  0  0  0  0
 10 11  1  0  0  0  0
 10  9  1  0  0  0  0
 12  9  2  0  0  0  0
 13 10  1  0  0  0  0
 14 15  1  0  0  0  0
 14 13  1  0  0  0  0
 15 13  1  0  0  0  0
 16  1  1  1  0  0  0
 16 19  1  0  0  0  0
 16 17  1  0  0  0  0
 18 19  1  0  0  0  0
 19 20  1  0  0  0  0
 21 18  2  0  0  0  0
 23 18  1  1  0  0  0
 23 24  1  0  0  0  0
 23 22  1  0  0  0  0
 24 25  1  0  0  0  0
 26 25  1  0  0  0  0
M  END
>  <MODEL>
4

>  <REMARK>
  Name = ZINC66762079
                            x       y       z     vdW  Elec       q    Type
                         _______ _______ _______ _____ _____    ______ ____

>  <TORSDO>
F 7

>  <minimizedAffinity>
-6.9474041425817212

$$$$
ZINC66762079
 OpenBabel10211215543D

 26 27  0  0  1  0  0  0  0  0999 V2000
   50.1790   50.7110   18.6080 C   0  0  0  0  0  0  0  0  0  0  0  0
   49.6320   49.5410   19.1010 C   0  0  0  0  0  0  0  0  0  0  0  0
   48.3920   49.1180   18.6620 C   0  0  0  0  0  0  0  0  0  0  0  0
   47.6950   49.8700   17.7250 C   0  0  0  0  0  0  0  0  0  0  0  0
   48.2490   51.0450   17.2310 C   0  0  0  0  0  0  0  0  0  0  0  0
   49.4860   51.4640   17.6790 C   0  0  0  0  0  0  0  0  0  0  0  0
   46.4400   49.4450   17.2780 N   0  0  0  0  0  0  0  0  0  0  0  0
   45.6390   49.7060   17.7590 H   0  0  0  0  0  0  0  0  0  0  0  0
   46.3420   48.6700   16.1790 C   0  0  0  0  0  0  0  0  0  0  0  0
   45.1300   48.3480   15.6860 N   0  0  0  0  0  0  0  0  0  0  0  0
   44.3280   48.6740   16.1220 H   0  0  0  0  0  0  0  0  0  0  0  0
   47.3490   48.2620   15.6330 O   0  0  0  0  0  0  0  0  0  0  0  0
   45.0250   47.5070   14.4920 C   0  0  0  0  0  0  0  0  0  0  0  0
   44.9180   48.2120   13.1380 C   0  0  0  0  0  0  0  0  0  0  0  0
   43.6940   47.5160   13.7360 C   0  0  0  0  0  0  0  0  0  0  0  0
   51.5320   51.1690   19.0890 C   0  0  2  0  0  0  0  0  0  0  0  0
   52.0590   50.1890   20.1390 C   0  0  0  0  0  0  0  0  0  0  0  0
   52.1680   53.5180   19.2150 C   0  0  0  0  0  0  0  0  0  0  0  0
   51.4130   52.5030   19.6820 N   0  0  0  0  0  0  0  0  0  0  0  0
   50.7920   52.6570   20.4110 H   0  0  0  0  0  0  0  0  0  0  0  0
   52.9450   53.3260   18.3040 O   0  0  0  0  0  0  0  0  0  0  0  0
   50.8630   55.6270   19.1920 C   0  0  0  0  0  0  0  0  0  0  0  0
   52.0460   54.8900   19.8250 C   0  0  1  0  0  0  0  0  0  0  0  0
   51.8170   54.7600   21.3330 C   0  0  0  0  0  0  0  0  0  0  0  0
   51.4810   56.3980   22.0370 S   0  0  0  0  0  0  0  0  0  0  0  0
   52.9960   57.3380   21.7060 C   0  0  0  0  0  0  0  0  0  0  0  0
  1  2  2  0  0  0  0
  3  2  1  0  0  0  0
  4  3  2  0  0  0  0
  5  6  2  0  0  0  0
  5  4  1  0  0  0  0
  6  1  1  0  0  0  0
  7  4  1  0  0  0  0
  7  8  1  0  0  0  0
  9  7  1  0  0  0  0
 10 11  1  0  0  0  0
 10  9  1  0  0  0  0
 12  9  2  0  0  0  0
 13 10  1  0  0  0  0
 14 15  1  0  0  0  0
 14 13  1  0  0  0  0
 15 13  1  0  0  0  0
 16  1  1  1  0  0  0
 16 19  1  0  0  0  0
 16 17  1  0  0  0  0
 18 19  1  0  0  0  0
 18 23  1  0  0  0  0
 19 20  1  0  0  0  0
 21 18  2  0  0  0  0
 23 22  1  1  0  0  0
 23 24  1  0  0  0  0
 24 25  1  0  0  0  0
 26 25  1  0  0  0  0
M  END
>  <MODEL>
5

>  <REMARK>
  Name = ZINC66762079
                            x       y       z     vdW  Elec       q    Type
                         _______ _______ _______ _____ _____    ______ ____

>  <TORSDO>
F 7

>  <minimizedAffinity>
-6.9180172881138864

$$$$
ZINC66762079
 OpenBabel10211215543D

 26 27  0  0  1  0  0  0  0  0999 V2000
   46.0110   48.3390   17.4940 C   0  0  0  0  0  0  0  0  0  0  0  0
   45.9860   49.7190   17.4260 C   0  0  0  0  0  0  0  0  0  0  0  0
   47.1580   50.4250   17.2300 C   0  0  0  0  0  0  0  0  0  0  0  0
   48.3620   49.7450   17.1010 C   0  0  0  0  0  0  0  0  0  0  0  0
   48.3830   48.3580   17.1680 C   0  0  0  0  0  0  0  0  0  0  0  0
   47.2090   47.6600   17.3700 C   0  0  0  0  0  0  0  0  0  0  0  0
   49.5500   50.4560   16.9010 N   0  0  0  0  0  0  0  0  0  0  0  0
   49.8230   50.7010   16.0030 H   0  0  0  0  0  0  0  0  0  0  0  0
   50.3160   50.8000   17.9560 C   0  0  0  0  0  0  0  0  0  0  0  0
   51.4030   51.5750   17.7760 N   0  0  0  0  0  0  0  0  0  0  0  0
   51.6350   51.8860   16.8870 H   0  0  0  0  0  0  0  0  0  0  0  0
   50.0250   50.4090   19.0700 O   0  0  0  0  0  0  0  0  0  0  0  0
   52.2350   51.9480   18.9230 C   0  0  0  0  0  0  0  0  0  0  0  0
   51.8170   53.1810   19.7260 C   0  0  0  0  0  0  0  0  0  0  0  0
   53.0450   53.2420   18.8160 C   0  0  0  0  0  0  0  0  0  0  0  0
   44.7310   47.5730   17.7070 C   0  0  2  0  0  0  0  0  0  0  0  0
   44.6450   47.1190   19.1650 C   0  0  0  0  0  0  0  0  0  0  0  0
   44.1140   46.4710   15.6230 C   0  0  0  0  0  0  0  0  0  0  0  0
   44.7130   46.4000   16.8290 N   0  0  0  0  0  0  0  0  0  0  0  0
   45.1310   45.5730   17.1140 H   0  0  0  0  0  0  0  0  0  0  0  0
   43.5910   47.5060   15.2660 O   0  0  0  0  0  0  0  0  0  0  0  0
   45.2550   44.3370   15.0820 C   0  0  0  0  0  0  0  0  0  0  0  0
   44.0950   45.2660   14.7190 C   0  0  1  0  0  0  0  0  0  0  0  0
   42.7710   44.5180   14.8930 C   0  0  0  0  0  0  0  0  0  0  0  0
   43.0780   42.9220   15.6980 S   0  0  0  0  0  0  0  0  0  0  0  0
   41.6800   42.7280   16.8380 C   0  0  0  0  0  0  0  0  0  0  0  0
  1 16  1  0  0  0  0
  2  1  1  0  0  0  0
  3  2  2  0  0  0  0
  4  5  2  0  0  0  0
  4  3  1  0  0  0  0
  5  6  1  0  0  0  0
  6  1  2  0  0  0  0
  7  4  1  0  0  0  0
  7  9  1  0  0  0  0
  8  7  1  0  0  0  0
  9 12  2  0  0  0  0
 10  9  1  0  0  0  0
 10 13  1  0  0  0  0
 11 10  1  0  0  0  0
 13 14  1  0  0  0  0
 15 13  1  0  0  0  0
 15 14  1  0  0  0  0
 16 19  1  1  0  0  0
 16 17  1  0  0  0  0
 18 19  1  0  0  0  0
 19 20  1  0  0  0  0
 21 18  2  0  0  0  0
 23 24  1  1  0  0  0
 23 22  1  0  0  0  0
 23 18  1  0  0  0  0
 24 25  1  0  0  0  0
 25 26  1  0  0  0  0
M  END
>  <MODEL>
6

>  <REMARK>
  Name = ZINC66762079
                            x       y       z     vdW  Elec       q    Type
                         _______ _______ _______ _____ _____    ______ ____

>  <TORSDO>
F 7

>  <minimizedAffinity>
-6.890111360819219

$$$$
ZINC66762079
 OpenBabel10211215543D

 26 27  0  0  1  0  0  0  0  0999 V2000
   47.7160   50.4710   17.3730 C   0  0  0  0  0  0  0  0  0  0  0  0
   48.5610   49.3810   17.2810 C   0  0  0  0  0  0  0  0  0  0  0  0
   48.0380   48.1040   17.2040 C   0  0  0  0  0  0  0  0  0  0  0  0
   46.6620   47.9180   17.2170 C   0  0  0  0  0  0  0  0  0  0  0  0
   45.8160   49.0160   17.3080 C   0  0  0  0  0  0  0  0  0  0  0  0
   46.3460   50.2880   17.3910 C   0  0  0  0  0  0  0  0  0  0  0  0
   46.1290   46.6270   17.1370 N   0  0  0  0  0  0  0  0  0  0  0  0
   46.0250   46.0940   17.9420 H   0  0  0  0  0  0  0  0  0  0  0  0
   45.7610   46.1210   15.9430 C   0  0  0  0  0  0  0  0  0  0  0  0
   45.1500   44.9220   15.8780 N   0  0  0  0  0  0  0  0  0  0  0  0
   44.9750   44.4230   16.6900 H   0  0  0  0  0  0  0  0  0  0  0  0
   45.9820   46.7490   14.9240 O   0  0  0  0  0  0  0  0  0  0  0  0
   44.7500   44.3740   14.5790 C   0  0  0  0  0  0  0  0  0  0  0  0
   43.7530   43.2140   14.5800 C   0  0  0  0  0  0  0  0  0  0  0  0
   45.2210   42.9590   14.2350 C   0  0  0  0  0  0  0  0  0  0  0  0
   48.2900   51.8620   17.4570 C   0  0  2  0  0  0  0  0  0  0  0  0
   47.8290   52.6780   16.2480 C   0  0  0  0  0  0  0  0  0  0  0  0
   50.4590   52.4610   18.3940 C   0  0  0  0  0  0  0  0  0  0  0  0
   49.7540   51.7860   17.4640 N   0  0  0  0  0  0  0  0  0  0  0  0
   50.2160   51.2490   16.8010 H   0  0  0  0  0  0  0  0  0  0  0  0
   49.8820   53.1330   19.2230 O   0  0  0  0  0  0  0  0  0  0  0  0
   52.4930   52.8800   19.7490 C   0  0  0  0  0  0  0  0  0  0  0  0
   51.9640   52.3830   18.4020 C   0  0  1  0  0  0  0  0  0  0  0  0
   52.4010   50.9330   18.1870 C   0  0  0  0  0  0  0  0  0  0  0  0
   52.6230   50.1220   19.7940 S   0  0  0  0  0  0  0  0  0  0  0  0
   51.0630   49.2350   20.0580 C   0  0  0  0  0  0  0  0  0  0  0  0
  1  6  1  0  0  0  0
  1 16  1  0  0  0  0
  2  1  2  0  0  0  0
  3  4  2  0  0  0  0
  3  2  1  0  0  0  0
  4  5  1  0  0  0  0
  5  6  2  0  0  0  0
  7  4  1  0  0  0  0
  7  8  1  0  0  0  0
  9  7  1  0  0  0  0
 10  9  1  0  0  0  0
 10 11  1  0  0  0  0
 12  9  2  0  0  0  0
 13 14  1  0  0  0  0
 13 10  1  0  0  0  0
 15 13  1  0  0  0  0
 15 14  1  0  0  0  0
 16 17  1  6  0  0  0
 16 19  1  0  0  0  0
 18 23  1  0  0  0  0
 18 21  2  0  0  0  0
 19 18  1  0  0  0  0
 20 19  1  0  0  0  0
 23 24  1  1  0  0  0
 23 22  1  0  0  0  0
 24 25  1  0  0  0  0
 25 26  1  0  0  0  0
M  END
>  <MODEL>
7

>  <REMARK>
  Name = ZINC66762079
                            x       y       z     vdW  Elec       q    Type
                         _______ _______ _______ _____ _____    ______ ____

>  <TORSDO>
F 7

>  <minimizedAffinity>
-6.8450676806595183

$$$$
ZINC66762079
 OpenBabel10211215543D

 26 27  0  0  1  0  0  0  0  0999 V2000
   47.5540   50.2150   17.6680 C   0  0  0  0  0  0  0  0  0  0  0  0
   48.7080   49.8110   18.3140 C   0  0  0  0  0  0  0  0  0  0  0  0
   49.7760   50.6790   18.4320 C   0  0  0  0  0  0  0  0  0  0  0  0
   49.6890   51.9590   17.9020 C   0  0  0  0  0  0  0  0  0  0  0  0
   48.5290   52.3630   17.2540 C   0  0  0  0  0  0  0  0  0  0  0  0
   47.4670   51.4880   17.1340 C   0  0  0  0  0  0  0  0  0  0  0  0
   50.7690   52.8410   18.0210 N   0  0  0  0  0  0  0  0  0  0  0  0
   51.4470   52.8740   17.3280 H   0  0  0  0  0  0  0  0  0  0  0  0
   50.8670   53.6460   19.0980 C   0  0  0  0  0  0  0  0  0  0  0  0
   51.8460   54.5700   19.1630 N   0  0  0  0  0  0  0  0  0  0  0  0
   52.4800   54.6560   18.4340 H   0  0  0  0  0  0  0  0  0  0  0  0
   50.0710   53.5370   20.0120 O   0  0  0  0  0  0  0  0  0  0  0  0
   51.9510   55.4440   20.3340 C   0  0  0  0  0  0  0  0  0  0  0  0
   51.3270   56.8370   20.2330 C   0  0  0  0  0  0  0  0  0  0  0  0
   52.8490   56.6770   20.2160 C   0  0  0  0  0  0  0  0  0  0  0  0
   46.3910   49.2660   17.5410 C   0  0  2  0  0  0  0  0  0  0  0  0
   46.6430   48.0310   18.4080 C   0  0  0  0  0  0  0  0  0  0  0  0
   45.1130   48.2510   15.7310 C   0  0  0  0  0  0  0  0  0  0  0  0
   46.2450   48.8580   16.1410 N   0  0  0  0  0  0  0  0  0  0  0  0
   46.9620   49.0240   15.5090 H   0  0  0  0  0  0  0  0  0  0  0  0
   44.2160   48.0430   16.5200 O   0  0  0  0  0  0  0  0  0  0  0  0
   46.2120   48.2400   13.5080 C   0  0  0  0  0  0  0  0  0  0  0  0
   44.9630   47.8320   14.2910 C   0  0  1  0  0  0  0  0  0  0  0  0
   44.7890   46.3130   14.2170 C   0  0  0  0  0  0  0  0  0  0  0  0
   43.3910   45.9150   13.1330 S   0  0  0  0  0  0  0  0  0  0  0  0
   42.3820   47.4220   13.1460 C   0  0  0  0  0  0  0  0  0  0  0  0
  1  2  2  0  0  0  0
  2  3  1  0  0  0  0
  4  7  1  0  0  0  0
  4  3  2  0  0  0  0
  5  4  1  0  0  0  0
  6  5  2  0  0  0  0
  6  1  1  0  0  0  0
  7  9  1  0  0  0  0
  8  7  1  0  0  0  0
  9 10  1  0  0  0  0
  9 12  2  0  0  0  0
 10 13  1  0  0  0  0
 11 10  1  0  0  0  0
 14 13  1  0  0  0  0
 15 14  1  0  0  0  0
 15 13  1  0  0  0  0
 16 19  1  6  0  0  0
 16  1  1  0  0  0  0
 16 17  1  0  0  0  0
 18 19  1  0  0  0  0
 18 21  2  0  0  0  0
 20 19  1  0  0  0  0
 23 22  1  1  0  0  0
 23 18  1  0  0  0  0
 24 23  1  0  0  0  0
 25 26  1  0  0  0  0
 25 24  1  0  0  0  0
M  END
>  <MODEL>
8

>  <REMARK>
  Name = ZINC66762079
                            x       y       z     vdW  Elec       q    Type
                         _______ _______ _______ _____ _____    ______ ____

>  <TORSDO>
F 7

>  <minimizedAffinity>
-6.8336109552193056

$$$$
ZINC66762079
 OpenBabel10211215543D

 26 27  0  0  1  0  0  0  0  0999 V2000
   45.9420   48.4130   17.7540 C   0  0  0  0  0  0  0  0  0  0  0  0
   47.1920   47.8380   17.8930 C   0  0  0  0  0  0  0  0  0  0  0  0
   48.3290   48.5910   17.6780 C   0  0  0  0  0  0  0  0  0  0  0  0
   48.2170   49.9290   17.3230 C   0  0  0  0  0  0  0  0  0  0  0  0
   46.9610   50.5050   17.1860 C   0  0  0  0  0  0  0  0  0  0  0  0
   45.8280   49.7440   17.3960 C   0  0  0  0  0  0  0  0  0  0  0  0
   49.3670   50.6960   17.1070 N   0  0  0  0  0  0  0  0  0  0  0  0
   49.5740   51.0180   16.2150 H   0  0  0  0  0  0  0  0  0  0  0  0
   50.1880   50.9860   18.1360 C   0  0  0  0  0  0  0  0  0  0  0  0
   51.2370   51.8110   17.9500 N   0  0  0  0  0  0  0  0  0  0  0  0
   51.4010   52.1970   17.0750 H   0  0  0  0  0  0  0  0  0  0  0  0
   49.9820   50.5010   19.2320 O   0  0  0  0  0  0  0  0  0  0  0  0
   52.1280   52.1260   19.0690 C   0  0  0  0  0  0  0  0  0  0  0  0
   51.7890   53.3540   19.9170 C   0  0  0  0  0  0  0  0  0  0  0  0
   52.9800   53.3930   18.9580 C   0  0  0  0  0  0  0  0  0  0  0  0
   44.7040   47.5880   17.9890 C   0  0  2  0  0  0  0  0  0  0  0  0
   44.6640   47.1310   19.4480 C   0  0  0  0  0  0  0  0  0  0  0  0
   44.2190   46.4990   15.8640 C   0  0  0  0  0  0  0  0  0  0  0  0
   44.7250   46.4160   17.1100 N   0  0  0  0  0  0  0  0  0  0  0  0
   45.1030   45.5790   17.4260 H   0  0  0  0  0  0  0  0  0  0  0  0
   43.7450   47.5440   15.4700 O   0  0  0  0  0  0  0  0  0  0  0  0
   42.8560   44.6430   14.9440 C   0  0  0  0  0  0  0  0  0  0  0  0
   44.2410   45.2930   14.9600 C   0  0  1  0  0  0  0  0  0  0  0  0
   44.6170   45.7250   13.5410 C   0  0  0  0  0  0  0  0  0  0  0  0
   44.0110   44.4960   12.3530 S   0  0  0  0  0  0  0  0  0  0  0  0
   45.2680   43.1890   12.3930 C   0  0  0  0  0  0  0  0  0  0  0  0
  1  2  1  0  0  0  0
  1 16  1  0  0  0  0
  3  2  2  0  0  0  0
  4  3  1  0  0  0  0
  5  4  2  0  0  0  0
  5  6  1  0  0  0  0
  6  1  2  0  0  0  0
  7  4  1  0  0  0  0
  7  9  1  0  0  0  0
  8  7  1  0  0  0  0
  9 12  2  0  0  0  0
 10  9  1  0  0  0  0
 10 13  1  0  0  0  0
 11 10  1  0  0  0  0
 13 14  1  0  0  0  0
 15 13  1  0  0  0  0
 15 14  1  0  0  0  0
 16 19  1  1  0  0  0
 16 17  1  0  0  0  0
 18 19  1  0  0  0  0
 19 20  1  0  0  0  0
 21 18  2  0  0  0  0
 22 23  1  0  0  0  0
 23 24  1  6  0  0  0
 23 18  1  0  0  0  0
 25 26  1  0  0  0  0
 25 24  1  0  0  0  0
M  END
>  <MODEL>
9

>  <REMARK>
  Name = ZINC66762079
                            x       y       z     vdW  Elec       q    Type
                         _______ _______ _______ _____ _____    ______ ____

>  <TORSDO>
F 7

>  <minimizedAffinity>
-6.7151407433691066

$$$$
ZINC61629893
 OpenBabel10211215553D

 24 25  0  0  0  0  0  0  0  0999 V2000
   49.1490   52.8730   17.6180 C   0  0  0  0  0  0  0  0  0  0  0  0
   49.4570   53.9150   18.4620 C   0  0  0  0  0  0  0  0  0  0  0  0
   50.2190   53.6790   19.6180 C   0  0  0  0  0  0  0  0  0  0  0  0
   50.6610   52.3640   19.8980 C   0  0  0  0  0  0  0  0  0  0  0  0
   50.3360   51.3130   19.0230 C   0  0  0  0  0  0  0  0  0  0  0  0
   51.4270   52.1340   21.0640 C   0  0  0  0  0  0  0  0  0  0  0  0
   51.7100   53.2190   21.8800 C   0  0  0  0  0  0  0  0  0  0  0  0
   51.2400   54.4780   21.5370 C   0  0  0  0  0  0  0  0  0  0  0  0
   50.5290   54.6810   20.4510 N   0  0  0  0  0  0  0  0  0  0  0  0
   49.5810   51.5730   17.8970 C   0  0  0  0  0  0  0  0  0  0  0  0
   51.5540   55.6480   22.4330 C   0  0  0  0  0  0  0  0  0  0  0  0
   51.6540   55.2070   23.7570 F   0  0  0  0  0  0  0  0  0  0  0  0
   50.5340   56.6000   22.3350 F   0  0  0  0  0  0  0  0  0  0  0  0
   47.8420   54.4140   16.3630 C   0  0  0  0  0  0  0  0  0  0  0  0
   48.4110   53.1100   16.5010 O   0  0  0  0  0  0  0  0  0  0  0  0
   50.7570   50.0470   19.2870 O   0  0  0  0  0  0  0  0  0  0  0  0
   49.7520   49.0810   19.6000 C   0  0  0  0  0  0  0  0  0  0  0  0
   51.8830   50.8630   21.3820 N   0  0  0  0  0  0  0  0  0  0  0  0
   51.3250   50.2640   21.9040 H   0  0  0  0  0  0  0  0  0  0  0  0
   53.1160   50.4550   20.9610 N   0  0  0  0  0  0  0  0  0  0  0  0
   53.2060   49.4510   21.0240 H   0  0  0  0  0  0  0  0  0  0  0  0
   53.8460   50.9160   21.4810 H   0  0  0  0  0  0  0  0  0  0  0  0
   49.2580   50.5560   17.0500 O   0  0  0  0  0  0  0  0  0  0  0  0
   50.1340   50.3320   15.9440 C   0  0  0  0  0  0  0  0  0  0  0  0
  1 10  2  0  0  0  0
  1  2  1  0  0  0  0
  2  3  2  0  0  0  0
  3  4  1  0  0  0  0
  3  9  1  0  0  0  0
  4  6  1  0  0  0  0
  5 16  1  0  0  0  0
  5  4  2  0  0  0  0
  6 18  1  0  0  0  0
  6  7  2  0  0  0  0
  8  7  1  0  0  0  0
  8 11  1  0  0  0  0
  9  8  2  0  0  0  0
 10  5  1  0  0  0  0
 11 12  1  0  0  0  0
 13 11  1  0  0  0  0
 14 15  1  0  0  0  0
 15  1  1  0  0  0  0
 16 17  1  0  0  0  0
 18 19  1  0  0  0  0
 20 21  1  0  0  0  0
 20 18  1  0  0  0  0
 20 22  1  0  0  0  0
 23 10  1  0  0  0  0
 24 23  1  0  0  0  0
M  END
>  <MODEL>
1

>  <REMARK>
  Name = ZINC61629893
                            x       y       z     vdW  Elec       q    Type
                         _______ _______ _______ _____ _____    ______ ____

>  <TORSDO>
F 6

>  <minimizedAffinity>
-7.523307661700847

$$$$
ZINC61629893
 OpenBabel10211215553D

 24 25  0  0  0  0  0  0  0  0999 V2000
   49.4140   52.8590   18.1850 C   0  0  0  0  0  0  0  0  0  0  0  0
   48.7340   54.0320   18.4240 C   0  0  0  0  0  0  0  0  0  0  0  0
   49.1520   54.8850   19.4590 C   0  0  0  0  0  0  0  0  0  0  0  0
   50.2730   54.5240   20.2430 C   0  0  0  0  0  0  0  0  0  0  0  0
   50.9540   53.3220   19.9820 C   0  0  0  0  0  0  0  0  0  0  0  0
   50.6870   55.3870   21.2830 C   0  0  0  0  0  0  0  0  0  0  0  0
   49.9680   56.5570   21.4810 C   0  0  0  0  0  0  0  0  0  0  0  0
   48.8800   56.8410   20.6690 C   0  0  0  0  0  0  0  0  0  0  0  0
   48.5040   56.0310   19.7060 N   0  0  0  0  0  0  0  0  0  0  0  0
   50.5180   52.4990   18.9640 C   0  0  0  0  0  0  0  0  0  0  0  0
   48.1070   58.1140   20.8960 C   0  0  0  0  0  0  0  0  0  0  0  0
   48.4510   58.6520   22.1410 F   0  0  0  0  0  0  0  0  0  0  0  0
   46.7360   57.8400   20.8690 F   0  0  0  0  0  0  0  0  0  0  0  0
   47.8980   52.4820   16.3910 C   0  0  0  0  0  0  0  0  0  0  0  0
   49.0030   52.0380   17.1820 O   0  0  0  0  0  0  0  0  0  0  0  0
   52.0310   52.9690   20.7330 O   0  0  0  0  0  0  0  0  0  0  0  0
   51.8740   51.8480   21.6060 C   0  0  0  0  0  0  0  0  0  0  0  0
   51.7800   55.0760   22.0790 N   0  0  0  0  0  0  0  0  0  0  0  0
   52.1660   54.1870   22.0460 H   0  0  0  0  0  0  0  0  0  0  0  0
   52.3100   56.0210   22.9100 N   0  0  0  0  0  0  0  0  0  0  0  0
   52.5410   56.8620   22.4020 H   0  0  0  0  0  0  0  0  0  0  0  0
   53.1160   55.6620   23.3980 H   0  0  0  0  0  0  0  0  0  0  0  0
   51.1710   51.3300   18.7120 O   0  0  0  0  0  0  0  0  0  0  0  0
   52.3090   51.3960   17.8520 C   0  0  0  0  0  0  0  0  0  0  0  0
  1  2  2  0  0  0  0
  1 10  1  0  0  0  0
  2  3  1  0  0  0  0
  3  9  2  0  0  0  0
  3  4  1  0  0  0  0
  4  6  2  0  0  0  0
  5  4  1  0  0  0  0
  5 16  1  0  0  0  0
  6  7  1  0  0  0  0
  6 18  1  0  0  0  0
  8 11  1  0  0  0  0
  8  7  2  0  0  0  0
  9  8  1  0  0  0  0
 10  5  2  0  0  0  0
 11 12  1  0  0  0  0
 13 11  1  0  0  0  0
 14 15  1  0  0  0  0
 15  1  1  0  0  0  0
 16 17  1  0  0  0  0
 18 20  1  0  0  0  0
 19 18  1  0  0  0  0
 20 22  1  0  0  0  0
 21 20  1  0  0  0  0
 23 10  1  0  0  0  0
 24 23  1  0  0  0  0
M  END
>  <MODEL>
2

>  <REMARK>
  Name = ZINC61629893
                            x       y       z     vdW  Elec       q    Type
                         _______ _______ _______ _____ _____    ______ ____

>  <TORSDO>
F 6

>  <minimizedAffinity>
-7.2605634224233597

$$$$
ZINC61629893
 OpenBabel10211215553D

 24 25  0  0  0  0  0  0  0  0999 V2000
   49.4150   54.1730   18.3720 C   0  0  0  0  0  0  0  0  0  0  0  0
   48.9380   52.9690   17.9040 C   0  0  0  0  0  0  0  0  0  0  0  0
   49.4220   51.7660   18.4430 C   0  0  0  0  0  0  0  0  0  0  0  0
   50.3990   51.8100   19.4660 C   0  0  0  0  0  0  0  0  0  0  0  0
   50.8730   53.0490   19.9300 C   0  0  0  0  0  0  0  0  0  0  0  0
   50.8830   50.5950   20.0030 C   0  0  0  0  0  0  0  0  0  0  0  0
   50.3680   49.4100   19.4960 C   0  0  0  0  0  0  0  0  0  0  0  0
   49.4110   49.4500   18.4930 C   0  0  0  0  0  0  0  0  0  0  0  0
   48.9690   50.5860   18.0010 N   0  0  0  0  0  0  0  0  0  0  0  0
   50.3840   54.2160   19.3780 C   0  0  0  0  0  0  0  0  0  0  0  0
   48.8610   48.1560   17.9510 C   0  0  0  0  0  0  0  0  0  0  0  0
   48.9720   48.1510   16.5560 F   0  0  0  0  0  0  0  0  0  0  0  0
   47.5160   48.0310   18.3130 F   0  0  0  0  0  0  0  0  0  0  0  0
   48.1620   55.2330   16.6510 C   0  0  0  0  0  0  0  0  0  0  0  0
   48.9410   55.3330   17.8450 O   0  0  0  0  0  0  0  0  0  0  0  0
   51.8130   53.0980   20.9120 O   0  0  0  0  0  0  0  0  0  0  0  0
   51.4030   53.6210   22.1770 C   0  0  0  0  0  0  0  0  0  0  0  0
   51.8400   50.5860   21.0060 N   0  0  0  0  0  0  0  0  0  0  0  0
   51.5750   50.7090   21.9310 H   0  0  0  0  0  0  0  0  0  0  0  0
   53.1570   50.4060   20.6920 N   0  0  0  0  0  0  0  0  0  0  0  0
   53.3570   49.4320   20.5170 H   0  0  0  0  0  0  0  0  0  0  0  0
   53.7550   50.7740   21.4150 H   0  0  0  0  0  0  0  0  0  0  0  0
   50.8460   55.4190   19.8210 O   0  0  0  0  0  0  0  0  0  0  0  0
   51.9960   55.9530   19.1640 C   0  0  0  0  0  0  0  0  0  0  0  0
  1 10  1  0  0  0  0
  2  1  2  0  0  0  0
  2  3  1  0  0  0  0
  3  4  1  0  0  0  0
  4  5  1  0  0  0  0
  4  6  2  0  0  0  0
  5 16  1  0  0  0  0
  6 18  1  0  0  0  0
  7  6  1  0  0  0  0
  8  7  2  0  0  0  0
  9  3  2  0  0  0  0
  9  8  1  0  0  0  0
 10 23  1  0  0  0  0
 10  5  2  0  0  0  0
 11 13  1  0  0  0  0
 11  8  1  0  0  0  0
 12 11  1  0  0  0  0
 14 15  1  0  0  0  0
 15  1  1  0  0  0  0
 16 17  1  0  0  0  0
 18 19  1  0  0  0  0
 20 18  1  0  0  0  0
 20 22  1  0  0  0  0
 21 20  1  0  0  0  0
 24 23  1  0  0  0  0
M  END
>  <MODEL>
3

>  <REMARK>
  Name = ZINC61629893
                            x       y       z     vdW  Elec       q    Type
                         _______ _______ _______ _____ _____    ______ ____

>  <TORSDO>
F 6

>  <minimizedAffinity>
-6.8238281991916878

$$$$
ZINC61629893
 OpenBabel10211215553D

 24 25  0  0  0  0  0  0  0  0999 V2000
   49.4410   56.7120   20.0310 C   0  0  0  0  0  0  0  0  0  0  0  0
   48.9920   55.7230   19.1840 C   0  0  0  0  0  0  0  0  0  0  0  0
   49.5700   54.4440   19.2320 C   0  0  0  0  0  0  0  0  0  0  0  0
   50.6130   54.1900   20.1540 C   0  0  0  0  0  0  0  0  0  0  0  0
   51.0570   55.2130   21.0100 C   0  0  0  0  0  0  0  0  0  0  0  0
   51.1900   52.9000   20.1950 C   0  0  0  0  0  0  0  0  0  0  0  0
   50.7000   51.9410   19.3210 C   0  0  0  0  0  0  0  0  0  0  0  0
   49.6750   52.2680   18.4460 C   0  0  0  0  0  0  0  0  0  0  0  0
   49.1450   53.4700   18.4170 N   0  0  0  0  0  0  0  0  0  0  0  0
   50.4750   56.4620   20.9380 C   0  0  0  0  0  0  0  0  0  0  0  0
   49.1520   51.2160   17.5020 C   0  0  0  0  0  0  0  0  0  0  0  0
   48.3190   51.8160   16.5510 F   0  0  0  0  0  0  0  0  0  0  0  0
   48.4270   50.2610   18.2210 F   0  0  0  0  0  0  0  0  0  0  0  0
   47.5900   58.0970   20.5850 C   0  0  0  0  0  0  0  0  0  0  0  0
   48.8760   57.9470   19.9800 O   0  0  0  0  0  0  0  0  0  0  0  0
   52.0590   54.9750   21.8980 O   0  0  0  0  0  0  0  0  0  0  0  0
   51.7320   55.0710   23.2860 C   0  0  0  0  0  0  0  0  0  0  0  0
   52.2150   52.6020   21.0810 N   0  0  0  0  0  0  0  0  0  0  0  0
   53.0760   53.0390   20.9910 H   0  0  0  0  0  0  0  0  0  0  0  0
   52.0110   51.6940   22.0810 N   0  0  0  0  0  0  0  0  0  0  0  0
   51.9500   52.1520   22.9780 H   0  0  0  0  0  0  0  0  0  0  0  0
   52.7330   50.9910   22.0820 H   0  0  0  0  0  0  0  0  0  0  0  0
   50.9070   57.4570   21.7610 O   0  0  0  0  0  0  0  0  0  0  0  0
   52.0360   58.2160   21.3240 C   0  0  0  0  0  0  0  0  0  0  0  0
  1 10  2  0  0  0  0
  2  3  2  0  0  0  0
  2  1  1  0  0  0  0
  3  4  1  0  0  0  0
  4  6  1  0  0  0  0
  4  5  2  0  0  0  0
  5 16  1  0  0  0  0
  6 18  1  0  0  0  0
  7  6  2  0  0  0  0
  8  7  1  0  0  0  0
  9  8  2  0  0  0  0
  9  3  1  0  0  0  0
 10  5  1  0  0  0  0
 10 23  1  0  0  0  0
 11 13  1  0  0  0  0
 11  8  1  0  0  0  0
 12 11  1  0  0  0  0
 15  1  1  0  0  0  0
 15 14  1  0  0  0  0
 16 17  1  0  0  0  0
 18 20  1  0  0  0  0
 19 18  1  0  0  0  0
 20 22  1  0  0  0  0
 20 21  1  0  0  0  0
 24 23  1  0  0  0  0
M  END
>  <MODEL>
4

>  <REMARK>
  Name = ZINC61629893
                            x       y       z     vdW  Elec       q    Type
                         _______ _______ _______ _____ _____    ______ ____

>  <TORSDO>
F 6

>  <minimizedAffinity>
-6.6122787955693321

$$$$
ZINC61629893
 OpenBabel10211215553D

 24 25  0  0  0  0  0  0  0  0999 V2000
   48.9460   54.5030   19.0240 C   0  0  0  0  0  0  0  0  0  0  0  0
   48.4420   53.8890   17.8990 C   0  0  0  0  0  0  0  0  0  0  0  0
   48.9600   52.6500   17.4850 C   0  0  0  0  0  0  0  0  0  0  0  0
   49.9980   52.0480   18.2370 C   0  0  0  0  0  0  0  0  0  0  0  0
   50.4970   52.6910   19.3820 C   0  0  0  0  0  0  0  0  0  0  0  0
   50.5140   50.8020   17.8130 C   0  0  0  0  0  0  0  0  0  0  0  0
   49.9700   50.2270   16.6740 C   0  0  0  0  0  0  0  0  0  0  0  0
   48.9540   50.8800   15.9920 C   0  0  0  0  0  0  0  0  0  0  0  0
   48.4820   52.0380   16.3940 N   0  0  0  0  0  0  0  0  0  0  0  0
   49.9750   53.9110   19.7630 C   0  0  0  0  0  0  0  0  0  0  0  0
   48.3740   50.2440   14.7550 C   0  0  0  0  0  0  0  0  0  0  0  0
   47.6530   49.1000   15.1140 F   0  0  0  0  0  0  0  0  0  0  0  0
   49.4070   49.8900   13.8830 F   0  0  0  0  0  0  0  0  0  0  0  0
   48.4830   56.7680   18.4680 C   0  0  0  0  0  0  0  0  0  0  0  0
   48.4390   55.7010   19.4180 O   0  0  0  0  0  0  0  0  0  0  0  0
   51.4950   52.1180   20.1080 O   0  0  0  0  0  0  0  0  0  0  0  0
   51.1530   51.6230   21.4040 C   0  0  0  0  0  0  0  0  0  0  0  0
   51.5310   50.1730   18.5160 N   0  0  0  0  0  0  0  0  0  0  0  0
   51.3320   49.7100   19.3460 H   0  0  0  0  0  0  0  0  0  0  0  0
   52.8110   50.2060   18.0410 N   0  0  0  0  0  0  0  0  0  0  0  0
   53.4320   49.6800   18.6380 H   0  0  0  0  0  0  0  0  0  0  0  0
   53.1320   51.1550   17.9330 H   0  0  0  0  0  0  0  0  0  0  0  0
   50.4610   54.5390   20.8690 O   0  0  0  0  0  0  0  0  0  0  0  0
   51.5800   55.4080   20.6810 C   0  0  0  0  0  0  0  0  0  0  0  0
  1 15  1  0  0  0  0
  1 10  2  0  0  0  0
  2  1  1  0  0  0  0
  3  2  2  0  0  0  0
  3  4  1  0  0  0  0
  4  5  2  0  0  0  0
  5 10  1  0  0  0  0
  5 16  1  0  0  0  0
  6  4  1  0  0  0  0
  6 18  1  0  0  0  0
  7  6  2  0  0  0  0
  8  9  2  0  0  0  0
  8  7  1  0  0  0  0
  9  3  1  0  0  0  0
 10 23  1  0  0  0  0
 11 12  1  0  0  0  0
 11  8  1  0  0  0  0
 13 11  1  0  0  0  0
 14 15  1  0  0  0  0
 16 17  1  0  0  0  0
 18 19  1  0  0  0  0
 20 18  1  0  0  0  0
 20 21  1  0  0  0  0
 22 20  1  0  0  0  0
 24 23  1  0  0  0  0
M  END
>  <MODEL>
5

>  <REMARK>
  Name = ZINC61629893
                            x       y       z     vdW  Elec       q    Type
                         _______ _______ _______ _____ _____    ______ ____

>  <TORSDO>
F 6

>  <minimizedAffinity>
-6.4010974020263101

$$$$
ZINC61629893
 OpenBabel10211215553D

 24 25  0  0  0  0  0  0  0  0999 V2000
   48.9760   55.6480   18.4680 C   0  0  0  0  0  0  0  0  0  0  0  0
   49.4210   54.3780   18.7590 C   0  0  0  0  0  0  0  0  0  0  0  0
   50.1910   54.1530   19.9120 C   0  0  0  0  0  0  0  0  0  0  0  0
   50.5010   55.2420   20.7610 C   0  0  0  0  0  0  0  0  0  0  0  0
   50.0370   56.5300   20.4460 C   0  0  0  0  0  0  0  0  0  0  0  0
   51.2780   55.0070   21.9190 C   0  0  0  0  0  0  0  0  0  0  0  0
   51.6990   53.7090   22.1660 C   0  0  0  0  0  0  0  0  0  0  0  0
   51.3540   52.6940   21.2850 C   0  0  0  0  0  0  0  0  0  0  0  0
   50.6320   52.9240   20.2120 N   0  0  0  0  0  0  0  0  0  0  0  0
   49.2860   56.7250   19.3040 C   0  0  0  0  0  0  0  0  0  0  0  0
   51.8200   51.2890   21.5650 C   0  0  0  0  0  0  0  0  0  0  0  0
   52.8820   50.9710   20.7120 F   0  0  0  0  0  0  0  0  0  0  0  0
   50.7660   50.3950   21.3500 F   0  0  0  0  0  0  0  0  0  0  0  0
   47.9860   54.7270   16.5120 C   0  0  0  0  0  0  0  0  0  0  0  0
   48.2300   55.8580   17.3520 O   0  0  0  0  0  0  0  0  0  0  0  0
   50.3320   57.5810   21.2580 O   0  0  0  0  0  0  0  0  0  0  0  0
   49.2640   58.1130   22.0440 C   0  0  0  0  0  0  0  0  0  0  0  0
   51.6070   56.0420   22.7810 N   0  0  0  0  0  0  0  0  0  0  0  0
   50.9680   56.3400   23.4480 H   0  0  0  0  0  0  0  0  0  0  0  0
   52.8310   56.6410   22.6930 N   0  0  0  0  0  0  0  0  0  0  0  0
   52.7960   57.5880   23.0410 H   0  0  0  0  0  0  0  0  0  0  0  0
   53.1780   56.6180   21.7470 H   0  0  0  0  0  0  0  0  0  0  0  0
   48.8410   57.9730   18.9920 O   0  0  0  0  0  0  0  0  0  0  0  0
   47.4630   58.2520   19.2460 C   0  0  0  0  0  0  0  0  0  0  0  0
  1  2  2  0  0  0  0
  1 10  1  0  0  0  0
  2  3  1  0  0  0  0
  3  9  2  0  0  0  0
  3  4  1  0  0  0  0
  4  6  2  0  0  0  0
  5  4  1  0  0  0  0
  5 16  1  0  0  0  0
  6  7  1  0  0  0  0
  6 18  1  0  0  0  0
  8 11  1  0  0  0  0
  8  7  2  0  0  0  0
  9  8  1  0  0  0  0
 10  5  2  0  0  0  0
 12 11  1  0  0  0  0
 13 11  1  0  0  0  0
 14 15  1  0  0  0  0
 15  1  1  0  0  0  0
 16 17  1  0  0  0  0
 18 19  1  0  0  0  0
 20 18  1  0  0  0  0
 20 21  1  0  0  0  0
 22 20  1  0  0  0  0
 23 24  1  0  0  0  0
 23 10  1  0  0  0  0
M  END
>  <MODEL>
6

>  <REMARK>
  Name = ZINC61629893
                            x       y       z     vdW  Elec       q    Type
                         _______ _______ _______ _____ _____    ______ ____

>  <TORSDO>
F 6

>  <minimizedAffinity>
-6.284488131112699

$$$$
ZINC61629893
 OpenBabel10211215553D

 24 25  0  0  0  0  0  0  0  0999 V2000
   52.0080   51.8330   18.6040 C   0  0  0  0  0  0  0  0  0  0  0  0
   52.7020   52.8850   19.1560 C   0  0  0  0  0  0  0  0  0  0  0  0
   52.0580   54.1160   19.3670 C   0  0  0  0  0  0  0  0  0  0  0  0
   50.6970   54.2550   19.0050 C   0  0  0  0  0  0  0  0  0  0  0  0
   50.0060   53.1680   18.4420 C   0  0  0  0  0  0  0  0  0  0  0  0
   50.0570   55.4980   19.2190 C   0  0  0  0  0  0  0  0  0  0  0  0
   50.8020   56.5240   19.7790 C   0  0  0  0  0  0  0  0  0  0  0  0
   52.1320   56.3090   20.1080 C   0  0  0  0  0  0  0  0  0  0  0  0
   52.7170   55.1500   19.9040 N   0  0  0  0  0  0  0  0  0  0  0  0
   50.6650   51.9720   18.2400 C   0  0  0  0  0  0  0  0  0  0  0  0
   52.9300   57.4340   20.7150 C   0  0  0  0  0  0  0  0  0  0  0  0
   54.2950   57.1930   20.5240 F   0  0  0  0  0  0  0  0  0  0  0  0
   52.6580   57.5130   22.0850 F   0  0  0  0  0  0  0  0  0  0  0  0
   52.8960   49.8450   19.5600 C   0  0  0  0  0  0  0  0  0  0  0  0
   52.6370   50.6450   18.4040 O   0  0  0  0  0  0  0  0  0  0  0  0
   48.6990   53.2970   18.0910 O   0  0  0  0  0  0  0  0  0  0  0  0
   48.3780   53.1280   16.7090 C   0  0  0  0  0  0  0  0  0  0  0  0
   48.7250   55.6830   18.8800 N   0  0  0  0  0  0  0  0  0  0  0  0
   48.0290   55.2320   19.3840 H   0  0  0  0  0  0  0  0  0  0  0  0
   48.3920   56.5000   17.8370 N   0  0  0  0  0  0  0  0  0  0  0  0
   47.4620   56.2980   17.5020 H   0  0  0  0  0  0  0  0  0  0  0  0
   49.0680   56.4290   17.0930 H   0  0  0  0  0  0  0  0  0  0  0  0
   50.0000   50.9190   17.6890 O   0  0  0  0  0  0  0  0  0  0  0  0
   49.3780   50.0020   18.5910 C   0  0  0  0  0  0  0  0  0  0  0  0
  1  2  2  0  0  0  0
  2  3  1  0  0  0  0
  3  9  2  0  0  0  0
  4  6  2  0  0  0  0
  4  3  1  0  0  0  0
  5  4  1  0  0  0  0
  6  7  1  0  0  0  0
  7  8  2  0  0  0  0
  8 11  1  0  0  0  0
  9  8  1  0  0  0  0
 10  5  2  0  0  0  0
 10  1  1  0  0  0  0
 11 13  1  0  0  0  0
 12 11  1  0  0  0  0
 15  1  1  0  0  0  0
 15 14  1  0  0  0  0
 16  5  1  0  0  0  0
 17 16  1  0  0  0  0
 18  6  1  0  0  0  0
 18 19  1  0  0  0  0
 20 18  1  0  0  0  0
 21 20  1  0  0  0  0
 22 20  1  0  0  0  0
 23 10  1  0  0  0  0
 23 24  1  0  0  0  0
M  END
>  <MODEL>
7

>  <REMARK>
  Name = ZINC61629893
                            x       y       z     vdW  Elec       q    Type
                         _______ _______ _______ _____ _____    ______ ____

>  <TORSDO>
F 6

>  <minimizedAffinity>
-6.2383849784920038

$$$$
ZINC61629893
 OpenBabel10211215553D

 24 25  0  0  0  0  0  0  0  0999 V2000
   48.7690   53.3510   17.6500 C   0  0  0  0  0  0  0  0  0  0  0  0
   47.9320   52.3410   17.2320 C   0  0  0  0  0  0  0  0  0  0  0  0
   48.2180   51.0080   17.5680 C   0  0  0  0  0  0  0  0  0  0  0  0
   49.3710   50.7210   18.3380 C   0  0  0  0  0  0  0  0  0  0  0  0
   50.2130   51.7660   18.7550 C   0  0  0  0  0  0  0  0  0  0  0  0
   49.6530   49.3770   18.6710 C   0  0  0  0  0  0  0  0  0  0  0  0
   48.7760   48.3990   18.2250 C   0  0  0  0  0  0  0  0  0  0  0  0
   47.6670   48.7610   17.4750 C   0  0  0  0  0  0  0  0  0  0  0  0
   47.4140   50.0130   17.1710 N   0  0  0  0  0  0  0  0  0  0  0  0
   49.9120   53.0670   18.4050 C   0  0  0  0  0  0  0  0  0  0  0  0
   46.7230   47.6880   16.9970 C   0  0  0  0  0  0  0  0  0  0  0  0
   47.3850   46.8580   16.0850 F   0  0  0  0  0  0  0  0  0  0  0  0
   45.6200   48.2800   16.3730 F   0  0  0  0  0  0  0  0  0  0  0  0
   47.7480   54.8530   16.1150 C   0  0  0  0  0  0  0  0  0  0  0  0
   48.4850   54.6380   17.3210 O   0  0  0  0  0  0  0  0  0  0  0  0
   51.3230   51.4960   19.4930 O   0  0  0  0  0  0  0  0  0  0  0  0
   52.5880   51.7030   18.8620 C   0  0  0  0  0  0  0  0  0  0  0  0
   50.7710   49.0450   19.4220 N   0  0  0  0  0  0  0  0  0  0  0  0
   51.6460   49.0140   19.0020 H   0  0  0  0  0  0  0  0  0  0  0  0
   50.6410   48.7620   20.7520 N   0  0  0  0  0  0  0  0  0  0  0  0
   51.3110   48.0630   21.0390 H   0  0  0  0  0  0  0  0  0  0  0  0
   49.7010   48.4720   20.9690 H   0  0  0  0  0  0  0  0  0  0  0  0
   50.7290   54.0810   18.8030 O   0  0  0  0  0  0  0  0  0  0  0  0
   50.4350   54.6960   20.0580 C   0  0  0  0  0  0  0  0  0  0  0  0
  1 10  2  0  0  0  0
  2  3  2  0  0  0  0
  2  1  1  0  0  0  0
  3  4  1  0  0  0  0
  4  6  1  0  0  0  0
  4  5  2  0  0  0  0
  5 16  1  0  0  0  0
  6 18  1  0  0  0  0
  7  6  2  0  0  0  0
  8  7  1  0  0  0  0
  9  8  2  0  0  0  0
  9  3  1  0  0  0  0
 10  5  1  0  0  0  0
 10 23  1  0  0  0  0
 11  8  1  0  0  0  0
 12 11  1  0  0  0  0
 13 11  1  0  0  0  0
 14 15  1  0  0  0  0
 15  1  1  0  0  0  0
 17 16  1  0  0  0  0
 18 20  1  0  0  0  0
 19 18  1  0  0  0  0
 20 22  1  0  0  0  0
 20 21  1  0  0  0  0
 23 24  1  0  0  0  0
M  END
>  <MODEL>
8

>  <REMARK>
  Name = ZINC61629893
                            x       y       z     vdW  Elec       q    Type
                         _______ _______ _______ _____ _____    ______ ____

>  <TORSDO>
F 6

>  <minimizedAffinity>
-6.2263967639819651

$$$$
ZINC61629893
 OpenBabel10211215553D

 24 25  0  0  0  0  0  0  0  0999 V2000
   50.5990   51.5700   19.7970 C   0  0  0  0  0  0  0  0  0  0  0  0
   50.6970   52.6790   20.6070 C   0  0  0  0  0  0  0  0  0  0  0  0
   50.1670   53.9080   20.1810 C   0  0  0  0  0  0  0  0  0  0  0  0
   49.5360   53.9870   18.9160 C   0  0  0  0  0  0  0  0  0  0  0  0
   49.4460   52.8430   18.1040 C   0  0  0  0  0  0  0  0  0  0  0  0
   49.0060   55.2280   18.4940 C   0  0  0  0  0  0  0  0  0  0  0  0
   49.1300   56.3130   19.3490 C   0  0  0  0  0  0  0  0  0  0  0  0
   49.7630   56.1540   20.5730 C   0  0  0  0  0  0  0  0  0  0  0  0
   50.2520   54.9960   20.9560 N   0  0  0  0  0  0  0  0  0  0  0  0
   49.9810   51.6500   18.5450 C   0  0  0  0  0  0  0  0  0  0  0  0
   49.8920   57.3420   21.4920 C   0  0  0  0  0  0  0  0  0  0  0  0
   50.6130   56.9720   22.6330 F   0  0  0  0  0  0  0  0  0  0  0  0
   48.6190   57.7830   21.8670 F   0  0  0  0  0  0  0  0  0  0  0  0
   52.5260   50.2070   20.0850 C   0  0  0  0  0  0  0  0  0  0  0  0
   51.1140   50.3850   20.2170 O   0  0  0  0  0  0  0  0  0  0  0  0
   48.8420   52.9140   16.8880 O   0  0  0  0  0  0  0  0  0  0  0  0
   47.5040   52.4210   16.7980 C   0  0  0  0  0  0  0  0  0  0  0  0
   48.3790   55.3560   17.2630 N   0  0  0  0  0  0  0  0  0  0  0  0
   48.1110   54.5640   16.7700 H   0  0  0  0  0  0  0  0  0  0  0  0
   48.1390   56.5960   16.7440 N   0  0  0  0  0  0  0  0  0  0  0  0
   47.3780   57.0500   17.2270 H   0  0  0  0  0  0  0  0  0  0  0  0
   47.9590   56.5450   15.7540 H   0  0  0  0  0  0  0  0  0  0  0  0
   49.9010   50.5420   17.7580 O   0  0  0  0  0  0  0  0  0  0  0  0
   48.9620   49.5370   18.1460 C   0  0  0  0  0  0  0  0  0  0  0  0
  1 15  1  0  0  0  0
  1  2  2  0  0  0  0
  3  2  1  0  0  0  0
  3  9  2  0  0  0  0
  4  3  1  0  0  0  0
  5 10  2  0  0  0  0
  5  4  1  0  0  0  0
  6  4  2  0  0  0  0
  6  7  1  0  0  0  0
  7  8  2  0  0  0  0
  8  9  1  0  0  0  0
  8 11  1  0  0  0  0
 10  1  1  0  0  0  0
 11 13  1  0  0  0  0
 11 12  1  0  0  0  0
 14 15  1  0  0  0  0
 16  5  1  0  0  0  0
 17 16  1  0  0  0  0
 18  6  1  0  0  0  0
 19 18  1  0  0  0  0
 20 21  1  0  0  0  0
 20 18  1  0  0  0  0
 22 20  1  0  0  0  0
 23 24  1  0  0  0  0
 23 10  1  0  0  0  0
M  END
>  <MODEL>
9

>  <REMARK>
  Name = ZINC61629893
                            x       y       z     vdW  Elec       q    Type
                         _______ _______ _______ _____ _____    ______ ____

>  <TORSDO>
F 6

>  <minimizedAffinity>
-6.1839894963495601

$$$$
ZINC09888960
 OpenBabel10211215573D

 26 27  0  0  0  0  0  0  0  0999 V2000
   48.4380   54.0870   17.5960 N   0  0  0  0  0  0  0  0  0  0  0  0
   47.7810   54.7990   17.6400 H   0  0  0  0  0  0  0  0  0  0  0  0
   49.4460   54.0450   18.4890 C   0  0  0  0  0  0  0  0  0  0  0  0
   50.2710   53.1530   18.4340 O   0  0  0  0  0  0  0  0  0  0  0  0
   49.5500   55.0810   19.5340 C   0  0  0  0  0  0  0  0  0  0  0  0
   48.5490   56.0490   19.6620 C   0  0  0  0  0  0  0  0  0  0  0  0
   48.6480   57.0140   20.6380 C   0  0  0  0  0  0  0  0  0  0  0  0
   49.7440   57.0280   21.4970 C   0  0  0  0  0  0  0  0  0  0  0  0
   50.7440   56.0680   21.3680 C   0  0  0  0  0  0  0  0  0  0  0  0
   50.6480   55.0980   20.3980 C   0  0  0  0  0  0  0  0  0  0  0  0
   49.8410   58.0050   22.4820 N   0  0  0  0  0  0  0  0  0  0  0  0
   49.2480   58.7720   22.4640 H   0  0  0  0  0  0  0  0  0  0  0  0
   50.5060   57.9210   23.1830 H   0  0  0  0  0  0  0  0  0  0  0  0
   51.9100   56.0900   22.2800 N   0  0  0  0  0  0  0  0  0  0  0  0
   52.8720   56.7910   22.0220 O   0  0  0  0  0  0  0  0  0  0  0  0
   51.9080   55.4080   23.2890 O   0  0  0  0  0  0  0  0  0  0  0  0
   48.3350   53.0580   16.5580 C   0  0  0  0  0  0  0  0  0  0  0  0
   47.2230   52.0740   16.9240 C   0  0  0  0  0  0  0  0  0  0  0  0
   47.6750   50.4120   16.3560 S   0  0  0  0  0  0  0  0  0  0  0  0
   44.3440   46.7370   19.7960 C   0  0  0  0  0  0  0  0  0  0  0  0
   45.1760   47.6550   18.9370 C   0  0  0  0  0  0  0  0  0  0  0  0
   44.6190   48.2440   17.8170 C   0  0  0  0  0  0  0  0  0  0  0  0
   45.3780   49.0850   17.0280 C   0  0  0  0  0  0  0  0  0  0  0  0
   46.7030   49.3390   17.3600 C   0  0  0  0  0  0  0  0  0  0  0  0
   47.2610   48.7400   18.4830 C   0  0  0  0  0  0  0  0  0  0  0  0
   46.4950   47.9050   19.2720 C   0  0  0  0  0  0  0  0  0  0  0  0
  1  2  1  0  0  0  0
  1  3  1  0  0  0  0
  3  5  1  0  0  0  0
  4  3  2  0  0  0  0
  5  6  2  0  0  0  0
  5 10  1  0  0  0  0
  6  7  1  0  0  0  0
  7  8  2  0  0  0  0
  8 11  1  0  0  0  0
  9  8  1  0  0  0  0
  9 14  1  0  0  0  0
 10  9  2  0  0  0  0
 11 13  1  0  0  0  0
 12 11  1  0  0  0  0
 14 16  2  0  0  0  0
 15 14  2  0  0  0  0
 17 18  1  0  0  0  0
 17  1  1  0  0  0  0
 19 18  1  0  0  0  0
 19 24  1  0  0  0  0
 21 26  1  0  0  0  0
 21 20  1  0  0  0  0
 22 21  2  0  0  0  0
 23 24  2  0  0  0  0
 23 22  1  0  0  0  0
 24 25  1  0  0  0  0
 25 26  2  0  0  0  0
M  END
>  <MODEL>
1

>  <REMARK>
  Name = ZINC09888960
                            x       y       z     vdW  Elec       q    Type
                         _______ _______ _______ _____ _____    ______ ____

>  <TORSDO>
F 7

>  <minimizedAffinity>
-8.5905704129400533

$$$$
ZINC09888960
 OpenBabel10211215573D

 26 27  0  0  0  0  0  0  0  0999 V2000
   51.7270   52.3290   19.9180 N   0  0  0  0  0  0  0  0  0  0  0  0
   51.2480   52.2590   20.7590 H   0  0  0  0  0  0  0  0  0  0  0  0
   52.0180   53.5410   19.4070 C   0  0  0  0  0  0  0  0  0  0  0  0
   52.6170   53.6300   18.3520 O   0  0  0  0  0  0  0  0  0  0  0  0
   51.6080   54.7620   20.1260 C   0  0  0  0  0  0  0  0  0  0  0  0
   50.2570   54.9970   20.3960 C   0  0  0  0  0  0  0  0  0  0  0  0
   49.8780   56.1360   21.0680 C   0  0  0  0  0  0  0  0  0  0  0  0
   50.8390   57.0550   21.4800 C   0  0  0  0  0  0  0  0  0  0  0  0
   52.1850   56.8260   21.2090 C   0  0  0  0  0  0  0  0  0  0  0  0
   52.5710   55.6870   20.5420 C   0  0  0  0  0  0  0  0  0  0  0  0
   50.4530   58.2060   22.1580 N   0  0  0  0  0  0  0  0  0  0  0  0
   50.0880   58.9590   21.6680 H   0  0  0  0  0  0  0  0  0  0  0  0
   50.5540   58.2570   23.1220 H   0  0  0  0  0  0  0  0  0  0  0  0
   53.2030   57.8090   21.6440 N   0  0  0  0  0  0  0  0  0  0  0  0
   53.0500   58.9930   21.4010 O   0  0  0  0  0  0  0  0  0  0  0  0
   54.1950   57.4350   22.2440 O   0  0  0  0  0  0  0  0  0  0  0  0
   52.1330   51.1160   19.2030 C   0  0  0  0  0  0  0  0  0  0  0  0
   50.9070   50.2360   18.9540 C   0  0  0  0  0  0  0  0  0  0  0  0
   49.8520   51.0100   17.6980 S   0  0  0  0  0  0  0  0  0  0  0  0
   44.6430   47.9870   18.1010 C   0  0  0  0  0  0  0  0  0  0  0  0
   45.9440   48.7420   18.0000 C   0  0  0  0  0  0  0  0  0  0  0  0
   47.0300   48.3480   18.7600 C   0  0  0  0  0  0  0  0  0  0  0  0
   48.2230   49.0370   18.6710 C   0  0  0  0  0  0  0  0  0  0  0  0
   48.3310   50.1280   17.8160 C   0  0  0  0  0  0  0  0  0  0  0  0
   47.2360   50.5230   17.0580 C   0  0  0  0  0  0  0  0  0  0  0  0
   46.0470   49.8260   17.1480 C   0  0  0  0  0  0  0  0  0  0  0  0
  1  2  1  0  0  0  0
  3  1  1  0  0  0  0
  3  5  1  0  0  0  0
  4  3  2  0  0  0  0
  5  6  2  0  0  0  0
  5 10  1  0  0  0  0
  6  7  1  0  0  0  0
  7  8  2  0  0  0  0
  8 11  1  0  0  0  0
  9  8  1  0  0  0  0
  9 14  1  0  0  0  0
 10  9  2  0  0  0  0
 11 13  1  0  0  0  0
 12 11  1  0  0  0  0
 14 16  2  0  0  0  0
 15 14  2  0  0  0  0
 17  1  1  0  0  0  0
 18 17  1  0  0  0  0
 19 24  1  0  0  0  0
 19 18  1  0  0  0  0
 21 20  1  0  0  0  0
 21 22  2  0  0  0  0
 23 22  1  0  0  0  0
 24 23  2  0  0  0  0
 25 26  2  0  0  0  0
 25 24  1  0  0  0  0
 26 21  1  0  0  0  0
M  END
>  <MODEL>
2

>  <REMARK>
  Name = ZINC09888960
                            x       y       z     vdW  Elec       q    Type
                         _______ _______ _______ _____ _____    ______ ____

>  <TORSDO>
F 7

>  <minimizedAffinity>
-8.5692427834074039

$$$$
ZINC09888960
 OpenBabel10211215573D

 26 27  0  0  0  0  0  0  0  0999 V2000
   51.7280   52.4390   19.7030 N   0  0  0  0  0  0  0  0  0  0  0  0
   51.5590   53.0520   18.9720 H   0  0  0  0  0  0  0  0  0  0  0  0
   51.5570   52.8440   20.9770 C   0  0  0  0  0  0  0  0  0  0  0  0
   51.7700   52.0760   21.8950 O   0  0  0  0  0  0  0  0  0  0  0  0
   51.1100   54.2220   21.2580 C   0  0  0  0  0  0  0  0  0  0  0  0
   51.7170   54.9610   22.2780 C   0  0  0  0  0  0  0  0  0  0  0  0
   51.2980   56.2460   22.5370 C   0  0  0  0  0  0  0  0  0  0  0  0
   50.2710   56.8110   21.7850 C   0  0  0  0  0  0  0  0  0  0  0  0
   49.6630   56.0750   20.7710 C   0  0  0  0  0  0  0  0  0  0  0  0
   50.0800   54.7920   20.5040 C   0  0  0  0  0  0  0  0  0  0  0  0
   49.8510   58.1090   22.0500 N   0  0  0  0  0  0  0  0  0  0  0  0
   49.8550   58.4440   22.9600 H   0  0  0  0  0  0  0  0  0  0  0  0
   49.5480   58.6780   21.3250 H   0  0  0  0  0  0  0  0  0  0  0  0
   48.5680   56.6780   19.9780 N   0  0  0  0  0  0  0  0  0  0  0  0
   47.6180   57.1910   20.5410 O   0  0  0  0  0  0  0  0  0  0  0  0
   48.6170   56.6600   18.7610 O   0  0  0  0  0  0  0  0  0  0  0  0
   52.1730   51.0700   19.4240 C   0  0  0  0  0  0  0  0  0  0  0  0
   50.9620   50.2010   19.0810 C   0  0  0  0  0  0  0  0  0  0  0  0
   49.9130   51.0710   17.8840 S   0  0  0  0  0  0  0  0  0  0  0  0
   44.7020   48.0290   18.0270 C   0  0  0  0  0  0  0  0  0  0  0  0
   46.0030   48.7880   17.9910 C   0  0  0  0  0  0  0  0  0  0  0  0
   47.0630   48.3770   18.7770 C   0  0  0  0  0  0  0  0  0  0  0  0
   48.2570   49.0710   18.7480 C   0  0  0  0  0  0  0  0  0  0  0  0
   48.3910   50.1830   17.9260 C   0  0  0  0  0  0  0  0  0  0  0  0
   47.3220   50.5960   17.1410 C   0  0  0  0  0  0  0  0  0  0  0  0
   46.1330   49.8950   17.1710 C   0  0  0  0  0  0  0  0  0  0  0  0
  1  3  1  0  0  0  0
  2  1  1  0  0  0  0
  3  5  1  0  0  0  0
  3  4  2  0  0  0  0
  5  6  2  0  0  0  0
  6  7  1  0  0  0  0
  8 11  1  0  0  0  0
  8  7  2  0  0  0  0
  9  8  1  0  0  0  0
 10  9  2  0  0  0  0
 10  5  1  0  0  0  0
 11 12  1  0  0  0  0
 13 11  1  0  0  0  0
 14 15  2  0  0  0  0
 14  9  1  0  0  0  0
 16 14  2  0  0  0  0
 17  1  1  0  0  0  0
 18 17  1  0  0  0  0
 19 24  1  0  0  0  0
 19 18  1  0  0  0  0
 21 20  1  0  0  0  0
 21 22  2  0  0  0  0
 23 22  1  0  0  0  0
 24 23  2  0  0  0  0
 25 26  2  0  0  0  0
 25 24  1  0  0  0  0
 26 21  1  0  0  0  0
M  END
>  <MODEL>
3

>  <REMARK>
  Name = ZINC09888960
                            x       y       z     vdW  Elec       q    Type
                         _______ _______ _______ _____ _____    ______ ____

>  <TORSDO>
F 7

>  <minimizedAffinity>
-8.4421563320935267

$$$$
ZINC09888960
 OpenBabel10211215573D

 26 27  0  0  0  0  0  0  0  0999 V2000
   49.6800   52.8000   18.6790 N   0  0  0  0  0  0  0  0  0  0  0  0
   50.2250   52.6110   19.4580 H   0  0  0  0  0  0  0  0  0  0  0  0
   49.1140   54.0140   18.5300 C   0  0  0  0  0  0  0  0  0  0  0  0
   48.4300   54.2510   17.5530 O   0  0  0  0  0  0  0  0  0  0  0  0
   49.3240   55.0550   19.5540 C   0  0  0  0  0  0  0  0  0  0  0  0
   48.4040   56.0990   19.6900 C   0  0  0  0  0  0  0  0  0  0  0  0
   48.6020   57.0690   20.6460 C   0  0  0  0  0  0  0  0  0  0  0  0
   49.7170   57.0110   21.4780 C   0  0  0  0  0  0  0  0  0  0  0  0
   50.6360   55.9740   21.3420 C   0  0  0  0  0  0  0  0  0  0  0  0
   50.4410   54.9990   20.3920 C   0  0  0  0  0  0  0  0  0  0  0  0
   49.9140   57.9920   22.4430 N   0  0  0  0  0  0  0  0  0  0  0  0
   49.4110   57.9650   23.2720 H   0  0  0  0  0  0  0  0  0  0  0  0
   50.5510   58.7060   22.2850 H   0  0  0  0  0  0  0  0  0  0  0  0
   51.8230   55.9190   22.2260 N   0  0  0  0  0  0  0  0  0  0  0  0
   51.8770   55.0980   23.1230 O   0  0  0  0  0  0  0  0  0  0  0  0
   52.7460   56.6950   22.0550 O   0  0  0  0  0  0  0  0  0  0  0  0
   49.4720   51.7650   17.6620 C   0  0  0  0  0  0  0  0  0  0  0  0
   50.3310   50.5440   17.9930 C   0  0  0  0  0  0  0  0  0  0  0  0
   49.3040   49.2800   18.7910 S   0  0  0  0  0  0  0  0  0  0  0  0
   45.0350   48.0690   14.6990 C   0  0  0  0  0  0  0  0  0  0  0  0
   46.1010   48.3710   15.7210 C   0  0  0  0  0  0  0  0  0  0  0  0
   45.7520   48.9260   16.9380 C   0  0  0  0  0  0  0  0  0  0  0  0
   46.7250   49.2050   17.8760 C   0  0  0  0  0  0  0  0  0  0  0  0
   48.0580   48.9260   17.5960 C   0  0  0  0  0  0  0  0  0  0  0  0
   48.4050   48.3730   16.3700 C   0  0  0  0  0  0  0  0  0  0  0  0
   47.4260   48.0920   15.4380 C   0  0  0  0  0  0  0  0  0  0  0  0
  1  2  1  0  0  0  0
  3  1  1  0  0  0  0
  3  5  1  0  0  0  0
  4  3  2  0  0  0  0
  5  6  2  0  0  0  0
  5 10  1  0  0  0  0
  6  7  1  0  0  0  0
  7  8  2  0  0  0  0
  8 11  1  0  0  0  0
  9  8  1  0  0  0  0
  9 14  1  0  0  0  0
 10  9  2  0  0  0  0
 11 12  1  0  0  0  0
 13 11  1  0  0  0  0
 14 15  2  0  0  0  0
 16 14  2  0  0  0  0
 17 18  1  0  0  0  0
 17  1  1  0  0  0  0
 18 19  1  0  0  0  0
 20 21  1  0  0  0  0
 21 22  1  0  0  0  0
 22 23  2  0  0  0  0
 24 23  1  0  0  0  0
 24 19  1  0  0  0  0
 25 24  2  0  0  0  0
 26 21  2  0  0  0  0
 26 25  1  0  0  0  0
M  END
>  <MODEL>
4

>  <REMARK>
  Name = ZINC09888960
                            x       y       z     vdW  Elec       q    Type
                         _______ _______ _______ _____ _____    ______ ____

>  <TORSDO>
F 7

>  <minimizedAffinity>
-8.3998072588448824

$$$$
ZINC09888960
 OpenBabel10211215573D

 26 27  0  0  0  0  0  0  0  0999 V2000
   50.1110   50.4360   18.0230 N   0  0  0  0  0  0  0  0  0  0  0  0
   49.7950   50.6060   17.1220 H   0  0  0  0  0  0  0  0  0  0  0  0
   49.5920   49.4190   18.7390 C   0  0  0  0  0  0  0  0  0  0  0  0
   49.9870   49.2060   19.8690 O   0  0  0  0  0  0  0  0  0  0  0  0
   48.5430   48.5640   18.1510 C   0  0  0  0  0  0  0  0  0  0  0  0
   48.7900   47.8690   16.9640 C   0  0  0  0  0  0  0  0  0  0  0  0
   47.8100   47.0710   16.4180 C   0  0  0  0  0  0  0  0  0  0  0  0
   46.5740   46.9560   17.0470 C   0  0  0  0  0  0  0  0  0  0  0  0
   46.3240   47.6500   18.2280 C   0  0  0  0  0  0  0  0  0  0  0  0
   47.3010   48.4450   18.7810 C   0  0  0  0  0  0  0  0  0  0  0  0
   45.5860   46.1500   16.4930 N   0  0  0  0  0  0  0  0  0  0  0  0
   45.6720   45.8360   15.5790 H   0  0  0  0  0  0  0  0  0  0  0  0
   44.8080   45.9060   17.0190 H   0  0  0  0  0  0  0  0  0  0  0  0
   45.0060   47.5290   18.8910 N   0  0  0  0  0  0  0  0  0  0  0  0
   44.0150   48.0070   18.3680 O   0  0  0  0  0  0  0  0  0  0  0  0
   44.9120   46.9510   19.9590 O   0  0  0  0  0  0  0  0  0  0  0  0
   51.1520   51.2860   18.6070 C   0  0  0  0  0  0  0  0  0  0  0  0
   50.6320   52.7190   18.7270 C   0  0  0  0  0  0  0  0  0  0  0  0
   50.9200   53.3280   20.4120 S   0  0  0  0  0  0  0  0  0  0  0  0
   47.6230   58.3750   20.7260 C   0  0  0  0  0  0  0  0  0  0  0  0
   48.4460   57.1140   20.6480 C   0  0  0  0  0  0  0  0  0  0  0  0
   49.6290   57.0180   21.3580 C   0  0  0  0  0  0  0  0  0  0  0  0
   50.3860   55.8650   21.2880 C   0  0  0  0  0  0  0  0  0  0  0  0
   49.9570   54.8010   20.5030 C   0  0  0  0  0  0  0  0  0  0  0  0
   48.7720   54.9040   19.7870 C   0  0  0  0  0  0  0  0  0  0  0  0
   48.0170   56.0580   19.8650 C   0  0  0  0  0  0  0  0  0  0  0  0
  1 17  1  0  0  0  0
  1  3  1  0  0  0  0
  2  1  1  0  0  0  0
  3  4  2  0  0  0  0
  5  3  1  0  0  0  0
  5 10  2  0  0  0  0
  6  5  1  0  0  0  0
  7  6  2  0  0  0  0
  7  8  1  0  0  0  0
  8  9  2  0  0  0  0
  9 10  1  0  0  0  0
  9 14  1  0  0  0  0
 11 13  1  0  0  0  0
 11  8  1  0  0  0  0
 12 11  1  0  0  0  0
 14 16  2  0  0  0  0
 15 14  2  0  0  0  0
 17 18  1  0  0  0  0
 18 19  1  0  0  0  0
 19 24  1  0  0  0  0
 21 20  1  0  0  0  0
 21 22  2  0  0  0  0
 23 22  1  0  0  0  0
 24 23  2  0  0  0  0
 25 26  2  0  0  0  0
 25 24  1  0  0  0  0
 26 21  1  0  0  0  0
M  END
>  <MODEL>
5

>  <REMARK>
  Name = ZINC09888960
                            x       y       z     vdW  Elec       q    Type
                         _______ _______ _______ _____ _____    ______ ____

>  <TORSDO>
F 7

>  <minimizedAffinity>
-8.3439888726699767

$$$$
ZINC09888960
 OpenBabel10211215573D

 26 27  0  0  0  0  0  0  0  0999 V2000
   49.7510   50.5120   18.2090 N   0  0  0  0  0  0  0  0  0  0  0  0
   49.4560   50.3050   19.1090 H   0  0  0  0  0  0  0  0  0  0  0  0
   49.0660   50.0390   17.1490 C   0  0  0  0  0  0  0  0  0  0  0  0
   49.4360   50.2970   16.0200 O   0  0  0  0  0  0  0  0  0  0  0  0
   47.8650   49.2080   17.3590 C   0  0  0  0  0  0  0  0  0  0  0  0
   47.5100   48.8040   18.6490 C   0  0  0  0  0  0  0  0  0  0  0  0
   46.3890   48.0290   18.8430 C   0  0  0  0  0  0  0  0  0  0  0  0
   45.6100   47.6470   17.7540 C   0  0  0  0  0  0  0  0  0  0  0  0
   45.9640   48.0440   16.4680 C   0  0  0  0  0  0  0  0  0  0  0  0
   47.0800   48.8230   16.2690 C   0  0  0  0  0  0  0  0  0  0  0  0
   44.4780   46.8630   17.9530 N   0  0  0  0  0  0  0  0  0  0  0  0
   44.1530   46.2920   17.2400 H   0  0  0  0  0  0  0  0  0  0  0  0
   44.0110   46.8920   18.8020 H   0  0  0  0  0  0  0  0  0  0  0  0
   45.1350   47.6300   15.3130 N   0  0  0  0  0  0  0  0  0  0  0  0
   43.9250   47.7630   15.3530 O   0  0  0  0  0  0  0  0  0  0  0  0
   45.6630   47.1580   14.3220 O   0  0  0  0  0  0  0  0  0  0  0  0
   50.9440   51.3380   18.0000 C   0  0  0  0  0  0  0  0  0  0  0  0
   50.6180   52.7960   18.3260 C   0  0  0  0  0  0  0  0  0  0  0  0
   50.7890   53.0700   20.1110 S   0  0  0  0  0  0  0  0  0  0  0  0
   48.0250   58.3530   21.0490 C   0  0  0  0  0  0  0  0  0  0  0  0
   48.7150   57.0340   20.8150 C   0  0  0  0  0  0  0  0  0  0  0  0
   48.1400   56.0930   19.9800 C   0  0  0  0  0  0  0  0  0  0  0  0
   48.7690   54.8830   19.7640 C   0  0  0  0  0  0  0  0  0  0  0  0
   49.9820   54.6120   20.3850 C   0  0  0  0  0  0  0  0  0  0  0  0
   50.5540   55.5570   21.2270 C   0  0  0  0  0  0  0  0  0  0  0  0
   49.9220   56.7670   21.4350 C   0  0  0  0  0  0  0  0  0  0  0  0
  1  2  1  0  0  0  0
  3  5  1  0  0  0  0
  3  1  1  0  0  0  0
  4  3  2  0  0  0  0
  5  6  2  0  0  0  0
  6  7  1  0  0  0  0
  8 11  1  0  0  0  0
  8  7  2  0  0  0  0
  9  8  1  0  0  0  0
 10  9  2  0  0  0  0
 10  5  1  0  0  0  0
 11 13  1  0  0  0  0
 12 11  1  0  0  0  0
 14 15  2  0  0  0  0
 14  9  1  0  0  0  0
 16 14  2  0  0  0  0
 17  1  1  0  0  0  0
 17 18  1  0  0  0  0
 18 19  1  0  0  0  0
 19 24  1  0  0  0  0
 21 20  1  0  0  0  0
 21 26  2  0  0  0  0
 22 21  1  0  0  0  0
 23 22  2  0  0  0  0
 23 24  1  0  0  0  0
 24 25  2  0  0  0  0
 25 26  1  0  0  0  0
M  END
>  <MODEL>
6

>  <REMARK>
  Name = ZINC09888960
                            x       y       z     vdW  Elec       q    Type
                         _______ _______ _______ _____ _____    ______ ____

>  <TORSDO>
F 7

>  <minimizedAffinity>
-8.2459525741689301

$$$$
ZINC09888960
 OpenBabel10211215573D

 26 27  0  0  0  0  0  0  0  0999 V2000
   50.4340   51.0530   19.6660 N   0  0  0  0  0  0  0  0  0  0  0  0
   50.0960   51.7660   19.1030 H   0  0  0  0  0  0  0  0  0  0  0  0
   50.0030   49.7880   19.4840 C   0  0  0  0  0  0  0  0  0  0  0  0
   50.4250   48.8930   20.1900 O   0  0  0  0  0  0  0  0  0  0  0  0
   49.0190   49.4910   18.4250 C   0  0  0  0  0  0  0  0  0  0  0  0
   49.3260   49.7600   17.0880 C   0  0  0  0  0  0  0  0  0  0  0  0
   48.4060   49.4810   16.1030 C   0  0  0  0  0  0  0  0  0  0  0  0
   47.1720   48.9300   16.4370 C   0  0  0  0  0  0  0  0  0  0  0  0
   46.8630   48.6650   17.7680 C   0  0  0  0  0  0  0  0  0  0  0  0
   47.7800   48.9370   18.7570 C   0  0  0  0  0  0  0  0  0  0  0  0
   46.2450   48.6490   15.4390 N   0  0  0  0  0  0  0  0  0  0  0  0
   45.4320   49.1740   15.3710 H   0  0  0  0  0  0  0  0  0  0  0  0
   46.4090   47.9250   14.8150 H   0  0  0  0  0  0  0  0  0  0  0  0
   45.5470   48.0840   18.1190 N   0  0  0  0  0  0  0  0  0  0  0  0
   44.5220   48.6550   17.7920 O   0  0  0  0  0  0  0  0  0  0  0  0
   45.4890   47.0340   18.7350 O   0  0  0  0  0  0  0  0  0  0  0  0
   51.4110   51.3480   20.7180 C   0  0  0  0  0  0  0  0  0  0  0  0
   50.8860   52.4860   21.5950 C   0  0  0  0  0  0  0  0  0  0  0  0
   51.7530   54.0230   21.1740 S   0  0  0  0  0  0  0  0  0  0  0  0
   47.3230   58.0720   20.5340 C   0  0  0  0  0  0  0  0  0  0  0  0
   48.4300   57.0610   20.6930 C   0  0  0  0  0  0  0  0  0  0  0  0
   48.3660   55.8570   20.0170 C   0  0  0  0  0  0  0  0  0  0  0  0
   49.3770   54.9280   20.1610 C   0  0  0  0  0  0  0  0  0  0  0  0
   50.4600   55.2050   20.9880 C   0  0  0  0  0  0  0  0  0  0  0  0
   50.5170   56.4140   21.6700 C   0  0  0  0  0  0  0  0  0  0  0  0
   49.5050   57.3410   21.5170 C   0  0  0  0  0  0  0  0  0  0  0  0
  1 17  1  0  0  0  0
  2  1  1  0  0  0  0
  3  1  1  0  0  0  0
  3  4  2  0  0  0  0
  5 10  1  0  0  0  0
  5  3  1  0  0  0  0
  6  5  2  0  0  0  0
  7  8  2  0  0  0  0
  7  6  1  0  0  0  0
  8  9  1  0  0  0  0
  9 14  1  0  0  0  0
  9 10  2  0  0  0  0
 11  8  1  0  0  0  0
 12 11  1  0  0  0  0
 13 11  1  0  0  0  0
 14 16  2  0  0  0  0
 15 14  2  0  0  0  0
 17 18  1  0  0  0  0
 19 18  1  0  0  0  0
 20 21  1  0  0  0  0
 21 26  2  0  0  0  0
 22 23  2  0  0  0  0
 22 21  1  0  0  0  0
 23 24  1  0  0  0  0
 24 19  1  0  0  0  0
 24 25  2  0  0  0  0
 26 25  1  0  0  0  0
M  END
>  <MODEL>
7

>  <REMARK>
  Name = ZINC09888960
                            x       y       z     vdW  Elec       q    Type
                         _______ _______ _______ _____ _____    ______ ____

>  <TORSDO>
F 7

>  <minimizedAffinity>
-8.2339451877198897

$$$$
ZINC09888960
 OpenBabel10211215573D

 26 27  0  0  0  0  0  0  0  0999 V2000
   50.9870   51.7340   19.2940 N   0  0  0  0  0  0  0  0  0  0  0  0
   50.6910   52.2410   18.5230 H   0  0  0  0  0  0  0  0  0  0  0  0
   50.5700   50.4630   19.4660 C   0  0  0  0  0  0  0  0  0  0  0  0
   50.9400   49.8270   20.4340 O   0  0  0  0  0  0  0  0  0  0  0  0
   49.6650   49.8450   18.4790 C   0  0  0  0  0  0  0  0  0  0  0  0
   48.5970   49.0510   18.9090 C   0  0  0  0  0  0  0  0  0  0  0  0
   47.7540   48.4760   17.9870 C   0  0  0  0  0  0  0  0  0  0  0  0
   47.9630   48.6840   16.6260 C   0  0  0  0  0  0  0  0  0  0  0  0
   49.0270   49.4700   16.1950 C   0  0  0  0  0  0  0  0  0  0  0  0
   49.8710   50.0520   17.1130 C   0  0  0  0  0  0  0  0  0  0  0  0
   47.1090   48.1010   15.6960 N   0  0  0  0  0  0  0  0  0  0  0  0
   47.4270   47.3790   15.1310 H   0  0  0  0  0  0  0  0  0  0  0  0
   46.1970   48.4190   15.6090 H   0  0  0  0  0  0  0  0  0  0  0  0
   49.2490   49.6840   14.7470 N   0  0  0  0  0  0  0  0  0  0  0  0
   50.3450   49.4710   14.2610 O   0  0  0  0  0  0  0  0  0  0  0  0
   48.3350   50.0720   14.0410 O   0  0  0  0  0  0  0  0  0  0  0  0
   51.8860   52.3480   20.2750 C   0  0  0  0  0  0  0  0  0  0  0  0
   51.9360   53.8590   20.0440 C   0  0  0  0  0  0  0  0  0  0  0  0
   51.6560   54.7210   21.6150 S   0  0  0  0  0  0  0  0  0  0  0  0
   47.1070   58.5040   20.4150 C   0  0  0  0  0  0  0  0  0  0  0  0
   48.2430   57.5590   20.7150 C   0  0  0  0  0  0  0  0  0  0  0  0
   49.2130   57.9170   21.6330 C   0  0  0  0  0  0  0  0  0  0  0  0
   50.2560   57.0540   21.9090 C   0  0  0  0  0  0  0  0  0  0  0  0
   50.3280   55.8260   21.2640 C   0  0  0  0  0  0  0  0  0  0  0  0
   49.3540   55.4720   20.3390 C   0  0  0  0  0  0  0  0  0  0  0  0
   48.3110   56.3370   20.0710 C   0  0  0  0  0  0  0  0  0  0  0  0
  1  3  1  0  0  0  0
  1 17  1  0  0  0  0
  2  1  1  0  0  0  0
  3  4  2  0  0  0  0
  5  6  1  0  0  0  0
  5  3  1  0  0  0  0
  7  6  2  0  0  0  0
  8  7  1  0  0  0  0
  9  8  2  0  0  0  0
  9 10  1  0  0  0  0
 10  5  2  0  0  0  0
 11  8  1  0  0  0  0
 12 11  1  0  0  0  0
 13 11  1  0  0  0  0
 14  9  1  0  0  0  0
 15 14  2  0  0  0  0
 16 14  2  0  0  0  0
 18 17  1  0  0  0  0
 18 19  1  0  0  0  0
 20 21  1  0  0  0  0
 21 22  2  0  0  0  0
 22 23  1  0  0  0  0
 24 19  1  0  0  0  0
 24 23  2  0  0  0  0
 25 24  1  0  0  0  0
 26 25  2  0  0  0  0
 26 21  1  0  0  0  0
M  END
>  <MODEL>
8

>  <REMARK>
  Name = ZINC09888960
                            x       y       z     vdW  Elec       q    Type
                         _______ _______ _______ _____ _____    ______ ____

>  <TORSDO>
F 7

>  <minimizedAffinity>
-7.9023908202087609

$$$$
ZINC09888960
 OpenBabel10211215573D

 26 27  0  0  0  0  0  0  0  0999 V2000
   50.0220   50.5120   18.0970 N   0  0  0  0  0  0  0  0  0  0  0  0
   49.6220   50.7560   17.2480 H   0  0  0  0  0  0  0  0  0  0  0  0
   49.6150   49.3980   18.7370 C   0  0  0  0  0  0  0  0  0  0  0  0
   50.1150   49.0910   19.8020 O   0  0  0  0  0  0  0  0  0  0  0  0
   48.5630   48.5490   18.1450 C   0  0  0  0  0  0  0  0  0  0  0  0
   48.8080   47.8570   16.9560 C   0  0  0  0  0  0  0  0  0  0  0  0
   47.8250   47.0660   16.4060 C   0  0  0  0  0  0  0  0  0  0  0  0
   46.5870   46.9550   17.0340 C   0  0  0  0  0  0  0  0  0  0  0  0
   46.3390   47.6470   18.2160 C   0  0  0  0  0  0  0  0  0  0  0  0
   47.3200   48.4350   18.7730 C   0  0  0  0  0  0  0  0  0  0  0  0
   45.5960   46.1560   16.4760 N   0  0  0  0  0  0  0  0  0  0  0  0
   44.8050   46.5630   16.0890 H   0  0  0  0  0  0  0  0  0  0  0  0
   45.6930   45.1910   16.4780 H   0  0  0  0  0  0  0  0  0  0  0  0
   45.0200   47.5300   18.8770 N   0  0  0  0  0  0  0  0  0  0  0  0
   44.0300   48.0040   18.3490 O   0  0  0  0  0  0  0  0  0  0  0  0
   44.9230   46.9600   19.9490 O   0  0  0  0  0  0  0  0  0  0  0  0
   51.0660   51.3540   18.6850 C   0  0  0  0  0  0  0  0  0  0  0  0
   50.4200   52.4550   19.5270 C   0  0  0  0  0  0  0  0  0  0  0  0
   51.2900   52.5930   21.1130 S   0  0  0  0  0  0  0  0  0  0  0  0
   52.7380   58.4410   21.4800 C   0  0  0  0  0  0  0  0  0  0  0  0
   52.3760   56.9810   21.3880 C   0  0  0  0  0  0  0  0  0  0  0  0
   51.8860   56.3210   22.5000 C   0  0  0  0  0  0  0  0  0  0  0  0
   51.5540   54.9830   22.4200 C   0  0  0  0  0  0  0  0  0  0  0  0
   51.7130   54.3000   21.2200 C   0  0  0  0  0  0  0  0  0  0  0  0
   52.2100   54.9650   20.1060 C   0  0  0  0  0  0  0  0  0  0  0  0
   52.5350   56.3050   20.1920 C   0  0  0  0  0  0  0  0  0  0  0  0
  1 17  1  0  0  0  0
  1  3  1  0  0  0  0
  2  1  1  0  0  0  0
  3  4  2  0  0  0  0
  5  3  1  0  0  0  0
  5 10  2  0  0  0  0
  6  5  1  0  0  0  0
  7  6  2  0  0  0  0
  7  8  1  0  0  0  0
  8  9  2  0  0  0  0
  9 10  1  0  0  0  0
  9 14  1  0  0  0  0
 11 13  1  0  0  0  0
 11  8  1  0  0  0  0
 12 11  1  0  0  0  0
 14 16  2  0  0  0  0
 15 14  2  0  0  0  0
 17 18  1  0  0  0  0
 18 19  1  0  0  0  0
 19 24  1  0  0  0  0
 21 20  1  0  0  0  0
 21 22  2  0  0  0  0
 23 22  1  0  0  0  0
 24 23  2  0  0  0  0
 25 26  2  0  0  0  0
 25 24  1  0  0  0  0
 26 21  1  0  0  0  0
M  END
>  <MODEL>
9

>  <REMARK>
  Name = ZINC09888960
                            x       y       z     vdW  Elec       q    Type
                         _______ _______ _______ _____ _____    ______ ____

>  <TORSDO>
F 7

>  <minimizedAffinity>
-7.8926060848136244

$$$$
ZINC66159442
 OpenBabel10211215583D

 27 27  0  0  1  0  0  0  0  0999 V2000
   50.2870   51.2420   17.9210 C   0  0  0  0  0  0  0  0  0  0  0  0
   49.9160   50.3550   18.9270 C   0  0  0  0  0  0  0  0  0  0  0  0
   49.0520   49.3140   18.6530 C   0  0  0  0  0  0  0  0  0  0  0  0
   48.5470   49.1440   17.3740 C   0  0  0  0  0  0  0  0  0  0  0  0
   48.9160   50.0340   16.3560 C   0  0  0  0  0  0  0  0  0  0  0  0
   49.7870   51.0880   16.6400 C   0  0  0  0  0  0  0  0  0  0  0  0
   51.5450   54.4210   19.0950 N   0  0  0  0  0  0  0  0  0  0  0  0
   52.5000   54.3000   18.9770 H   0  0  0  0  0  0  0  0  0  0  0  0
   50.6910   53.4430   18.7330 C   0  0  0  0  0  0  0  0  0  0  0  0
   51.1640   52.2960   18.2080 N   0  0  0  0  0  0  0  0  0  0  0  0
   52.1130   52.2000   18.0280 H   0  0  0  0  0  0  0  0  0  0  0  0
   49.4940   53.5950   18.8810 O   0  0  0  0  0  0  0  0  0  0  0  0
   51.0300   55.6690   19.6660 C   0  0  0  0  0  0  0  0  0  0  0  0
   51.5880   55.8510   21.0790 C   0  0  2  0  0  0  0  0  0  0  0  0
   51.5560   54.5110   21.8170 C   0  0  0  0  0  0  0  0  0  0  0  0
   49.3410   56.9350   21.2090 C   0  0  0  0  0  0  0  0  0  0  0  0
   50.7350   56.8700   21.8370 C   0  0  0  0  0  0  0  0  0  0  0  0
   52.9350   56.3210   21.0020 O   0  0  0  0  0  0  0  0  0  0  0  0
   53.2570   56.4460   20.1000 H   0  0  0  0  0  0  0  0  0  0  0  0
   48.3990   49.8650   15.0300 C   0  0  0  0  0  0  0  0  0  0  0  0
   47.9890   49.7320   13.9800 N   0  0  0  0  0  0  0  0  0  0  0  0
   47.6980   48.1190   17.1080 O   0  0  0  0  0  0  0  0  0  0  0  0
   46.5220   48.0240   17.9130 C   0  0  0  0  0  0  0  0  0  0  0  0
   45.3940   48.8330   17.2680 C   0  0  0  0  0  0  0  0  0  0  0  0
   45.5860   50.1920   17.5320 F   0  0  0  0  0  0  0  0  0  0  0  0
   44.1660   48.4230   17.7970 F   0  0  0  0  0  0  0  0  0  0  0  0
   45.4010   48.6190   15.8850 F   0  0  0  0  0  0  0  0  0  0  0  0
  1 10  1  0  0  0  0
  1  2  2  0  0  0  0
  3  2  1  0  0  0  0
  4  3  2  0  0  0  0
  5  6  2  0  0  0  0
  5  4  1  0  0  0  0
  6  1  1  0  0  0  0
  7 13  1  0  0  0  0
  8  7  1  0  0  0  0
  9 12  2  0  0  0  0
  9  7  1  0  0  0  0
 10  9  1  0  0  0  0
 11 10  1  0  0  0  0
 14 13  1  6  0  0  0
 14 15  1  0  0  0  0
 14 17  1  0  0  0  0
 16 17  1  0  0  0  0
 18 14  1  0  0  0  0
 19 18  1  0  0  0  0
 20  5  1  0  0  0  0
 21 20  3  0  0  0  0
 22  4  1  0  0  0  0
 22 23  1  0  0  0  0
 24 25  1  0  0  0  0
 24 26  1  0  0  0  0
 24 23  1  0  0  0  0
 27 24  1  0  0  0  0
M  END
>  <MODEL>
1

>  <REMARK>
  Name = ZINC66159442
                            x       y       z     vdW  Elec       q    Type
                         _______ _______ _______ _____ _____    ______ ____

>  <TORSDO>
F 9

>  <minimizedAffinity>
-7.3312774991997287

$$$$
ZINC66159442
 OpenBabel10211215583D

 27 27  0  0  1  0  0  0  0  0999 V2000
   49.8230   52.5100   18.1540 C   0  0  0  0  0  0  0  0  0  0  0  0
   48.9000   53.5010   17.8380 C   0  0  0  0  0  0  0  0  0  0  0  0
   48.7450   54.5970   18.6610 C   0  0  0  0  0  0  0  0  0  0  0  0
   49.5100   54.7200   19.8110 C   0  0  0  0  0  0  0  0  0  0  0  0
   50.4420   53.7250   20.1360 C   0  0  0  0  0  0  0  0  0  0  0  0
   50.5900   52.6150   19.3020 C   0  0  0  0  0  0  0  0  0  0  0  0
   49.4160   49.2040   16.7490 N   0  0  0  0  0  0  0  0  0  0  0  0
   49.9160   49.2890   15.9220 H   0  0  0  0  0  0  0  0  0  0  0  0
   49.3470   50.2420   17.6050 C   0  0  0  0  0  0  0  0  0  0  0  0
   49.9730   51.3990   17.3130 N   0  0  0  0  0  0  0  0  0  0  0  0
   50.5280   51.4630   16.5200 H   0  0  0  0  0  0  0  0  0  0  0  0
   48.7200   50.1360   18.6420 O   0  0  0  0  0  0  0  0  0  0  0  0
   48.7340   47.9460   17.0670 C   0  0  0  0  0  0  0  0  0  0  0  0
   47.3470   47.9400   16.4210 C   0  0  2  0  0  0  0  0  0  0  0  0
   46.8100   46.5070   16.3820 C   0  0  0  0  0  0  0  0  0  0  0  0
   46.1830   48.1140   14.2170 C   0  0  0  0  0  0  0  0  0  0  0  0
   47.4470   48.4860   14.9960 C   0  0  0  0  0  0  0  0  0  0  0  0
   46.4620   48.7600   17.1850 O   0  0  0  0  0  0  0  0  0  0  0  0
   46.7330   48.8800   18.1050 H   0  0  0  0  0  0  0  0  0  0  0  0
   51.2370   53.8450   21.3220 C   0  0  0  0  0  0  0  0  0  0  0  0
   51.8660   53.9410   22.2620 N   0  0  0  0  0  0  0  0  0  0  0  0
   49.3560   55.8000   20.6180 O   0  0  0  0  0  0  0  0  0  0  0  0
   49.2200   57.0720   19.9820 C   0  0  0  0  0  0  0  0  0  0  0  0
   48.1090   57.8700   20.6680 C   0  0  0  0  0  0  0  0  0  0  0  0
   48.4620   58.1130   21.9980 F   0  0  0  0  0  0  0  0  0  0  0  0
   46.9170   57.1380   20.6270 F   0  0  0  0  0  0  0  0  0  0  0  0
   47.9300   59.0870   20.0010 F   0  0  0  0  0  0  0  0  0  0  0  0
  1  6  1  0  0  0  0
  2  1  2  0  0  0  0
  2  3  1  0  0  0  0
  3  4  2  0  0  0  0
  4  5  1  0  0  0  0
  4 22  1  0  0  0  0
  5 20  1  0  0  0  0
  6  5  2  0  0  0  0
  7 13  1  0  0  0  0
  7  9  1  0  0  0  0
  8  7  1  0  0  0  0
  9 12  2  0  0  0  0
 10  9  1  0  0  0  0
 10  1  1  0  0  0  0
 11 10  1  0  0  0  0
 14 17  1  6  0  0  0
 14 13  1  0  0  0  0
 14 18  1  0  0  0  0
 15 14  1  0  0  0  0
 16 17  1  0  0  0  0
 18 19  1  0  0  0  0
 20 21  3  0  0  0  0
 23 22  1  0  0  0  0
 23 24  1  0  0  0  0
 24 25  1  0  0  0  0
 26 24  1  0  0  0  0
 27 24  1  0  0  0  0
M  END
>  <MODEL>
2

>  <REMARK>
  Name = ZINC66159442
                            x       y       z     vdW  Elec       q    Type
                         _______ _______ _______ _____ _____    ______ ____

>  <TORSDO>
F 9

>  <minimizedAffinity>
-7.25856716336658

$$$$
ZINC66159442
 OpenBabel10211215583D

 27 27  0  0  1  0  0  0  0  0999 V2000
   50.6090   51.5460   17.8760 C   0  0  0  0  0  0  0  0  0  0  0  0
   51.9140   51.6090   18.3560 C   0  0  0  0  0  0  0  0  0  0  0  0
   52.3010   52.6400   19.1880 C   0  0  0  0  0  0  0  0  0  0  0  0
   51.3910   53.6200   19.5550 C   0  0  0  0  0  0  0  0  0  0  0  0
   50.0750   53.5620   19.0760 C   0  0  0  0  0  0  0  0  0  0  0  0
   49.6910   52.5200   18.2290 C   0  0  0  0  0  0  0  0  0  0  0  0
   49.1270   48.4630   16.7100 N   0  0  0  0  0  0  0  0  0  0  0  0
   49.2660   48.5380   15.7520 H   0  0  0  0  0  0  0  0  0  0  0  0
   49.5790   49.4270   17.5350 C   0  0  0  0  0  0  0  0  0  0  0  0
   50.2250   50.4970   17.0310 N   0  0  0  0  0  0  0  0  0  0  0  0
   50.4230   50.5410   16.0820 H   0  0  0  0  0  0  0  0  0  0  0  0
   49.4040   49.3330   18.7340 O   0  0  0  0  0  0  0  0  0  0  0  0
   48.4250   47.2990   17.2580 C   0  0  0  0  0  0  0  0  0  0  0  0
   46.9450   47.3680   16.8730 C   0  0  2  0  0  0  0  0  0  0  0  0
   46.7980   48.1190   15.5470 C   0  0  0  0  0  0  0  0  0  0  0  0
   45.7100   49.4660   17.4360 C   0  0  0  0  0  0  0  0  0  0  0  0
   46.1690   48.1050   17.9650 C   0  0  0  0  0  0  0  0  0  0  0  0
   46.4280   46.0440   16.7310 O   0  0  0  0  0  0  0  0  0  0  0  0
   47.0120   45.3540   17.0730 H   0  0  0  0  0  0  0  0  0  0  0  0
   49.1290   54.5710   19.4500 C   0  0  0  0  0  0  0  0  0  0  0  0
   48.3800   55.3710   19.7460 N   0  0  0  0  0  0  0  0  0  0  0  0
   51.7740   54.6310   20.3750 O   0  0  0  0  0  0  0  0  0  0  0  0
   51.7610   54.3690   21.7800 C   0  0  0  0  0  0  0  0  0  0  0  0
   51.6340   55.6890   22.5440 C   0  0  0  0  0  0  0  0  0  0  0  0
   52.7150   56.5170   22.2270 F   0  0  0  0  0  0  0  0  0  0  0  0
   51.6290   55.4320   23.9190 F   0  0  0  0  0  0  0  0  0  0  0  0
   50.4390   56.3220   22.1840 F   0  0  0  0  0  0  0  0  0  0  0  0
  1  6  2  0  0  0  0
  1  2  1  0  0  0  0
  2  3  2  0  0  0  0
  3  4  1  0  0  0  0
  4 22  1  0  0  0  0
  5 20  1  0  0  0  0
  5  4  2  0  0  0  0
  6  5  1  0  0  0  0
  7 13  1  0  0  0  0
  7  9  1  0  0  0  0
  8  7  1  0  0  0  0
  9 12  2  0  0  0  0
 10  9  1  0  0  0  0
 10  1  1  0  0  0  0
 11 10  1  0  0  0  0
 14 15  1  6  0  0  0
 14 13  1  0  0  0  0
 14 17  1  0  0  0  0
 16 17  1  0  0  0  0
 18 14  1  0  0  0  0
 18 19  1  0  0  0  0
 20 21  3  0  0  0  0
 22 23  1  0  0  0  0
 23 24  1  0  0  0  0
 24 26  1  0  0  0  0
 25 24  1  0  0  0  0
 27 24  1  0  0  0  0
M  END
>  <MODEL>
3

>  <REMARK>
  Name = ZINC66159442
                            x       y       z     vdW  Elec       q    Type
                         _______ _______ _______ _____ _____    ______ ____

>  <TORSDO>
F 9

>  <minimizedAffinity>
-7.1650336211239418

$$$$
ZINC66159442
 OpenBabel10211215583D

 27 27  0  0  1  0  0  0  0  0999 V2000
   48.4510   57.4260   20.5150 C   0  0  0  0  0  0  0  0  0  0  0  0
   48.1400   56.2130   19.9110 C   0  0  0  0  0  0  0  0  0  0  0  0
   49.0710   55.1950   19.8710 C   0  0  0  0  0  0  0  0  0  0  0  0
   50.3250   55.3750   20.4350 C   0  0  0  0  0  0  0  0  0  0  0  0
   50.6460   56.5950   21.0450 C   0  0  0  0  0  0  0  0  0  0  0  0
   49.7010   57.6230   21.0770 C   0  0  0  0  0  0  0  0  0  0  0  0
   46.2270   60.0660   19.4410 N   0  0  0  0  0  0  0  0  0  0  0  0
   45.7310   60.2370   20.2570 H   0  0  0  0  0  0  0  0  0  0  0  0
   47.2070   59.1410   19.4280 C   0  0  0  0  0  0  0  0  0  0  0  0
   47.4990   58.4540   20.5510 N   0  0  0  0  0  0  0  0  0  0  0  0
   47.0500   58.6710   21.3830 H   0  0  0  0  0  0  0  0  0  0  0  0
   47.8290   58.9270   18.4060 O   0  0  0  0  0  0  0  0  0  0  0  0
   45.9090   60.8130   18.2210 C   0  0  0  0  0  0  0  0  0  0  0  0
   46.6310   62.1620   18.2470 C   0  0  2  0  0  0  0  0  0  0  0  0
   46.6600   62.6970   19.6810 C   0  0  0  0  0  0  0  0  0  0  0  0
   46.7930   64.3540   17.0590 C   0  0  0  0  0  0  0  0  0  0  0  0
   45.8900   63.1530   17.3480 C   0  0  0  0  0  0  0  0  0  0  0  0
   47.9680   61.9960   17.7720 O   0  0  0  0  0  0  0  0  0  0  0  0
   48.6330   62.4590   18.2990 H   0  0  0  0  0  0  0  0  0  0  0  0
   51.9400   56.7890   21.6290 C   0  0  0  0  0  0  0  0  0  0  0  0
   52.9650   56.9410   22.0910 N   0  0  0  0  0  0  0  0  0  0  0  0
   51.2390   54.3720   20.3950 O   0  0  0  0  0  0  0  0  0  0  0  0
   50.7480   53.0400   20.5550 C   0  0  0  0  0  0  0  0  0  0  0  0
   51.2290   52.4760   21.8940 C   0  0  0  0  0  0  0  0  0  0  0  0
   50.1250   52.0790   22.6550 F   0  0  0  0  0  0  0  0  0  0  0  0
   51.9420   53.4610   22.5850 F   0  0  0  0  0  0  0  0  0  0  0  0
   52.0590   51.3740   21.6640 F   0  0  0  0  0  0  0  0  0  0  0  0
  1 10  1  0  0  0  0
  1  6  2  0  0  0  0
  2  1  1  0  0  0  0
  3  2  2  0  0  0  0
  3  4  1  0  0  0  0
  4  5  2  0  0  0  0
  5  6  1  0  0  0  0
  5 20  1  0  0  0  0
  7  8  1  0  0  0  0
  9  7  1  0  0  0  0
  9 10  1  0  0  0  0
 10 11  1  0  0  0  0
 12  9  2  0  0  0  0
 13 14  1  0  0  0  0
 13  7  1  0  0  0  0
 14 17  1  6  0  0  0
 14 15  1  0  0  0  0
 16 17  1  0  0  0  0
 18 14  1  0  0  0  0
 18 19  1  0  0  0  0
 20 21  3  0  0  0  0
 22  4  1  0  0  0  0
 22 23  1  0  0  0  0
 23 24  1  0  0  0  0
 24 26  1  0  0  0  0
 24 25  1  0  0  0  0
 27 24  1  0  0  0  0
M  END
>  <MODEL>
4

>  <REMARK>
  Name = ZINC66159442
                            x       y       z     vdW  Elec       q    Type
                         _______ _______ _______ _____ _____    ______ ____

>  <TORSDO>
F 9

>  <minimizedAffinity>
-7.0801107257447811

$$$$
ZINC66159442
 OpenBabel10211215583D

 27 27  0  0  1  0  0  0  0  0999 V2000
   48.5140   56.1040   19.9250 C   0  0  0  0  0  0  0  0  0  0  0  0
   48.4360   57.1510   20.8370 C   0  0  0  0  0  0  0  0  0  0  0  0
   48.0770   58.4160   20.4170 C   0  0  0  0  0  0  0  0  0  0  0  0
   47.7890   58.6510   19.0810 C   0  0  0  0  0  0  0  0  0  0  0  0
   47.8650   57.6010   18.1570 C   0  0  0  0  0  0  0  0  0  0  0  0
   48.2350   56.3250   18.5870 C   0  0  0  0  0  0  0  0  0  0  0  0
   50.5410   53.2650   20.8730 N   0  0  0  0  0  0  0  0  0  0  0  0
   49.8670   52.6650   21.2320 H   0  0  0  0  0  0  0  0  0  0  0  0
   50.1790   54.4600   20.3680 C   0  0  0  0  0  0  0  0  0  0  0  0
   48.8810   54.8240   20.3600 N   0  0  0  0  0  0  0  0  0  0  0  0
   48.2010   54.1990   20.6570 H   0  0  0  0  0  0  0  0  0  0  0  0
   51.0220   55.2120   19.9180 O   0  0  0  0  0  0  0  0  0  0  0  0
   51.9520   52.8690   20.8810 C   0  0  0  0  0  0  0  0  0  0  0  0
   52.0850   51.4420   20.3450 C   0  0  2  0  0  0  0  0  0  0  0  0
   52.3720   51.4870   18.8420 C   0  0  0  0  0  0  0  0  0  0  0  0
   50.3880   49.9180   19.3260 C   0  0  0  0  0  0  0  0  0  0  0  0
   50.7810   50.6820   20.5930 C   0  0  0  0  0  0  0  0  0  0  0  0
   53.1580   50.7800   21.0160 O   0  0  0  0  0  0  0  0  0  0  0  0
   53.2640   49.8520   20.7680 H   0  0  0  0  0  0  0  0  0  0  0  0
   47.5690   57.8360   16.7750 C   0  0  0  0  0  0  0  0  0  0  0  0
   47.3350   58.0220   15.6800 N   0  0  0  0  0  0  0  0  0  0  0  0
   47.4340   59.8950   18.6710 O   0  0  0  0  0  0  0  0  0  0  0  0
   46.1830   60.4030   19.1410 C   0  0  0  0  0  0  0  0  0  0  0  0
   46.2950   61.9130   19.3600 C   0  0  0  0  0  0  0  0  0  0  0  0
   47.3120   62.1760   20.2830 F   0  0  0  0  0  0  0  0  0  0  0  0
   45.0810   62.4040   19.8510 F   0  0  0  0  0  0  0  0  0  0  0  0
   46.5930   62.5390   18.1450 F   0  0  0  0  0  0  0  0  0  0  0  0
  1 10  1  0  0  0  0
  1  2  2  0  0  0  0
  3  2  1  0  0  0  0
  4  3  2  0  0  0  0
  5  6  2  0  0  0  0
  5  4  1  0  0  0  0
  6  1  1  0  0  0  0
  7 13  1  0  0  0  0
  7  8  1  0  0  0  0
  9  7  1  0  0  0  0
 10  9  1  0  0  0  0
 10 11  1  0  0  0  0
 12  9  2  0  0  0  0
 14 15  1  6  0  0  0
 14 17  1  0  0  0  0
 14 13  1  0  0  0  0
 14 18  1  0  0  0  0
 16 17  1  0  0  0  0
 19 18  1  0  0  0  0
 20  5  1  0  0  0  0
 21 20  3  0  0  0  0
 22  4  1  0  0  0  0
 22 23  1  0  0  0  0
 23 24  1  0  0  0  0
 24 26  1  0  0  0  0
 24 25  1  0  0  0  0
 27 24  1  0  0  0  0
M  END
>  <MODEL>
5

>  <REMARK>
  Name = ZINC66159442
                            x       y       z     vdW  Elec       q    Type
                         _______ _______ _______ _____ _____    ______ ____

>  <TORSDO>
F 9

>  <minimizedAffinity>
-7.0425034526704566

$$$$
ZINC66159442
 OpenBabel10211215583D

 27 27  0  0  1  0  0  0  0  0999 V2000
   49.9580   52.4830   18.2880 C   0  0  0  0  0  0  0  0  0  0  0  0
   48.9130   52.1860   17.4190 C   0  0  0  0  0  0  0  0  0  0  0  0
   48.3890   50.9100   17.3710 C   0  0  0  0  0  0  0  0  0  0  0  0
   48.9000   49.9150   18.1890 C   0  0  0  0  0  0  0  0  0  0  0  0
   49.9520   50.2070   19.0670 C   0  0  0  0  0  0  0  0  0  0  0  0
   50.4820   51.4980   19.1080 C   0  0  0  0  0  0  0  0  0  0  0  0
   50.7000   55.8380   19.4130 N   0  0  0  0  0  0  0  0  0  0  0  0
   51.3750   56.1060   18.7710 H   0  0  0  0  0  0  0  0  0  0  0  0
   50.1230   54.6230   19.3190 C   0  0  0  0  0  0  0  0  0  0  0  0
   50.4850   53.7810   18.3310 N   0  0  0  0  0  0  0  0  0  0  0  0
   51.1100   54.0730   17.6500 H   0  0  0  0  0  0  0  0  0  0  0  0
   49.2770   54.2870   20.1240 O   0  0  0  0  0  0  0  0  0  0  0  0
   50.3060   56.7540   20.4880 C   0  0  0  0  0  0  0  0  0  0  0  0
   51.4950   56.9840   21.4230 C   0  0  2  0  0  0  0  0  0  0  0  0
   52.7830   56.5300   20.7310 C   0  0  0  0  0  0  0  0  0  0  0  0
   51.7400   54.7320   22.4780 C   0  0  0  0  0  0  0  0  0  0  0  0
   51.2960   56.1780   22.7080 C   0  0  0  0  0  0  0  0  0  0  0  0
   51.5890   58.3730   21.7410 O   0  0  0  0  0  0  0  0  0  0  0  0
   51.6120   58.9530   20.9690 H   0  0  0  0  0  0  0  0  0  0  0  0
   50.4850   49.1840   19.9170 C   0  0  0  0  0  0  0  0  0  0  0  0
   50.9070   48.3720   20.5890 N   0  0  0  0  0  0  0  0  0  0  0  0
   48.3810   48.6610   18.1400 O   0  0  0  0  0  0  0  0  0  0  0  0
   47.2670   48.4530   17.2700 C   0  0  0  0  0  0  0  0  0  0  0  0
   46.0360   48.0780   18.0990 C   0  0  0  0  0  0  0  0  0  0  0  0
   45.0370   49.0370   17.9110 F   0  0  0  0  0  0  0  0  0  0  0  0
   46.3840   48.0250   19.4530 F   0  0  0  0  0  0  0  0  0  0  0  0
   45.5640   46.8250   17.6900 F   0  0  0  0  0  0  0  0  0  0  0  0
  1 10  1  0  0  0  0
  1  6  2  0  0  0  0
  2  1  1  0  0  0  0
  3  2  2  0  0  0  0
  3  4  1  0  0  0  0
  4  5  2  0  0  0  0
  5  6  1  0  0  0  0
  5 20  1  0  0  0  0
  7 13  1  0  0  0  0
  8  7  1  0  0  0  0
  9  7  1  0  0  0  0
  9 12  2  0  0  0  0
 10  9  1  0  0  0  0
 11 10  1  0  0  0  0
 14 13  1  6  0  0  0
 14 18  1  0  0  0  0
 14 17  1  0  0  0  0
 15 14  1  0  0  0  0
 16 17  1  0  0  0  0
 19 18  1  0  0  0  0
 20 21  3  0  0  0  0
 22  4  1  0  0  0  0
 23 24  1  0  0  0  0
 23 22  1  0  0  0  0
 24 26  1  0  0  0  0
 25 24  1  0  0  0  0
 27 24  1  0  0  0  0
M  END
>  <MODEL>
6

>  <REMARK>
  Name = ZINC66159442
                            x       y       z     vdW  Elec       q    Type
                         _______ _______ _______ _____ _____    ______ ____

>  <TORSDO>
F 9

>  <minimizedAffinity>
-6.9353432898774594

$$$$
ZINC66159442
 OpenBabel10211215583D

 27 27  0  0  1  0  0  0  0  0999 V2000
   49.1900   50.8730   17.2040 C   0  0  0  0  0  0  0  0  0  0  0  0
   48.6140   52.1370   17.1370 C   0  0  0  0  0  0  0  0  0  0  0  0
   49.1420   53.1820   17.8680 C   0  0  0  0  0  0  0  0  0  0  0  0
   50.2520   52.9800   18.6730 C   0  0  0  0  0  0  0  0  0  0  0  0
   50.8370   51.7090   18.7450 C   0  0  0  0  0  0  0  0  0  0  0  0
   50.2950   50.6530   18.0080 C   0  0  0  0  0  0  0  0  0  0  0  0
   47.3110   47.9070   16.3430 N   0  0  0  0  0  0  0  0  0  0  0  0
   47.4090   47.8960   15.3780 H   0  0  0  0  0  0  0  0  0  0  0  0
   47.9100   48.8690   17.0720 C   0  0  0  0  0  0  0  0  0  0  0  0
   48.6470   49.8170   16.4590 N   0  0  0  0  0  0  0  0  0  0  0  0
   48.8010   49.7690   15.5030 H   0  0  0  0  0  0  0  0  0  0  0  0
   47.7870   48.8830   18.2810 O   0  0  0  0  0  0  0  0  0  0  0  0
   46.5100   46.8750   17.0100 C   0  0  0  0  0  0  0  0  0  0  0  0
   45.0240   47.1500   16.7710 C   0  0  2  0  0  0  0  0  0  0  0  0
   44.8560   47.9560   15.4800 C   0  0  0  0  0  0  0  0  0  0  0  0
   44.7840   47.2250   19.2560 C   0  0  0  0  0  0  0  0  0  0  0  0
   44.4580   47.9480   17.9470 C   0  0  0  0  0  0  0  0  0  0  0  0
   44.3240   45.9110   16.6540 O   0  0  0  0  0  0  0  0  0  0  0  0
   44.8990   45.1390   16.5730 H   0  0  0  0  0  0  0  0  0  0  0  0
   51.9840   51.4910   19.5750 C   0  0  0  0  0  0  0  0  0  0  0  0
   52.8930   51.3180   20.2330 N   0  0  0  0  0  0  0  0  0  0  0  0
   50.7690   54.0100   19.3900 O   0  0  0  0  0  0  0  0  0  0  0  0
   50.2700   54.1950   20.7160 C   0  0  0  0  0  0  0  0  0  0  0  0
   51.4010   54.6810   21.6240 C   0  0  0  0  0  0  0  0  0  0  0  0
   52.4830   55.0950   20.8410 F   0  0  0  0  0  0  0  0  0  0  0  0
   51.8050   53.6390   22.4650 F   0  0  0  0  0  0  0  0  0  0  0  0
   50.9470   55.7550   22.3990 F   0  0  0  0  0  0  0  0  0  0  0  0
  1  6  1  0  0  0  0
  2  1  2  0  0  0  0
  2  3  1  0  0  0  0
  3  4  2  0  0  0  0
  4  5  1  0  0  0  0
  4 22  1  0  0  0  0
  5 20  1  0  0  0  0
  6  5  2  0  0  0  0
  7 13  1  0  0  0  0
  7  9  1  0  0  0  0
  8  7  1  0  0  0  0
  9 12  2  0  0  0  0
 10  9  1  0  0  0  0
 10  1  1  0  0  0  0
 11 10  1  0  0  0  0
 14 15  1  6  0  0  0
 14 13  1  0  0  0  0
 14 17  1  0  0  0  0
 17 16  1  0  0  0  0
 18 14  1  0  0  0  0
 19 18  1  0  0  0  0
 20 21  3  0  0  0  0
 22 23  1  0  0  0  0
 23 24  1  0  0  0  0
 24 27  1  0  0  0  0
 24 26  1  0  0  0  0
 25 24  1  0  0  0  0
M  END
>  <MODEL>
7

>  <REMARK>
  Name = ZINC66159442
                            x       y       z     vdW  Elec       q    Type
                         _______ _______ _______ _____ _____    ______ ____

>  <TORSDO>
F 9

>  <minimizedAffinity>
-6.9275228720654303

$$$$
ZINC66159442
 OpenBabel10211215583D

 27 27  0  0  1  0  0  0  0  0999 V2000
   48.5360   49.1610   17.9610 C   0  0  0  0  0  0  0  0  0  0  0  0
   48.8130   48.5450   16.7440 C   0  0  0  0  0  0  0  0  0  0  0  0
   47.9810   47.5570   16.2590 C   0  0  0  0  0  0  0  0  0  0  0  0
   46.8610   47.1710   16.9790 C   0  0  0  0  0  0  0  0  0  0  0  0
   46.5760   47.7870   18.2050 C   0  0  0  0  0  0  0  0  0  0  0  0
   47.4250   48.7830   18.6940 C   0  0  0  0  0  0  0  0  0  0  0  0
   49.9340   52.4230   18.6500 N   0  0  0  0  0  0  0  0  0  0  0  0
   50.6340   52.1970   19.2830 H   0  0  0  0  0  0  0  0  0  0  0  0
   49.1740   51.4500   18.1090 C   0  0  0  0  0  0  0  0  0  0  0  0
   49.3870   50.1630   18.4470 N   0  0  0  0  0  0  0  0  0  0  0  0
   50.1280   49.9300   19.0270 H   0  0  0  0  0  0  0  0  0  0  0  0
   48.2970   51.7330   17.3160 O   0  0  0  0  0  0  0  0  0  0  0  0
   49.7020   53.8230   18.2820 C   0  0  0  0  0  0  0  0  0  0  0  0
   49.8740   54.7090   19.5180 C   0  0  2  0  0  0  0  0  0  0  0  0
   50.2180   53.8370   20.7270 C   0  0  0  0  0  0  0  0  0  0  0  0
   48.8470   56.6390   20.7280 C   0  0  0  0  0  0  0  0  0  0  0  0
   48.5700   55.4640   19.7870 C   0  0  0  0  0  0  0  0  0  0  0  0
   50.9280   55.6460   19.2890 O   0  0  0  0  0  0  0  0  0  0  0  0
   51.7790   55.2380   19.0830 H   0  0  0  0  0  0  0  0  0  0  0  0
   45.4210   47.3950   18.9560 C   0  0  0  0  0  0  0  0  0  0  0  0
   44.5050   47.0830   19.5500 N   0  0  0  0  0  0  0  0  0  0  0  0
   46.0440   46.2000   16.4980 O   0  0  0  0  0  0  0  0  0  0  0  0
   45.6020   46.3340   15.1460 C   0  0  0  0  0  0  0  0  0  0  0  0
   44.5020   47.3940   15.0710 C   0  0  0  0  0  0  0  0  0  0  0  0
   43.7090   47.3260   16.2210 F   0  0  0  0  0  0  0  0  0  0  0  0
   43.7080   47.1640   13.9430 F   0  0  0  0  0  0  0  0  0  0  0  0
   45.0840   48.6640   14.9800 F   0  0  0  0  0  0  0  0  0  0  0  0
  1 10  1  0  0  0  0
  1  6  2  0  0  0  0
  2  1  1  0  0  0  0
  3  2  2  0  0  0  0
  3  4  1  0  0  0  0
  4  5  2  0  0  0  0
  5  6  1  0  0  0  0
  5 20  1  0  0  0  0
  7  8  1  0  0  0  0
  9 10  1  0  0  0  0
  9  7  1  0  0  0  0
 10 11  1  0  0  0  0
 12  9  2  0  0  0  0
 13  7  1  0  0  0  0
 14 13  1  6  0  0  0
 14 17  1  0  0  0  0
 14 15  1  0  0  0  0
 17 16  1  0  0  0  0
 18 14  1  0  0  0  0
 19 18  1  0  0  0  0
 20 21  3  0  0  0  0
 22  4  1  0  0  0  0
 23 22  1  0  0  0  0
 24 23  1  0  0  0  0
 24 25  1  0  0  0  0
 26 24  1  0  0  0  0
 27 24  1  0  0  0  0
M  END
>  <MODEL>
8

>  <REMARK>
  Name = ZINC66159442
                            x       y       z     vdW  Elec       q    Type
                         _______ _______ _______ _____ _____    ______ ____

>  <TORSDO>
F 9

>  <minimizedAffinity>
-6.9006118671790952

$$$$
ZINC66159442
 OpenBabel10211215583D

 27 27  0  0  1  0  0  0  0  0999 V2000
   48.5730   57.2980   20.7550 C   0  0  0  0  0  0  0  0  0  0  0  0
   49.5820   57.4740   21.6960 C   0  0  0  0  0  0  0  0  0  0  0  0
   50.6110   56.5590   21.7930 C   0  0  0  0  0  0  0  0  0  0  0  0
   50.6470   55.4580   20.9510 C   0  0  0  0  0  0  0  0  0  0  0  0
   49.6340   55.2750   20.0010 C   0  0  0  0  0  0  0  0  0  0  0  0
   48.5920   56.2010   19.9120 C   0  0  0  0  0  0  0  0  0  0  0  0
   46.4030   59.8870   19.4660 N   0  0  0  0  0  0  0  0  0  0  0  0
   45.7010   59.8940   20.1360 H   0  0  0  0  0  0  0  0  0  0  0  0
   47.4550   59.0550   19.6000 C   0  0  0  0  0  0  0  0  0  0  0  0
   47.5310   58.2310   20.6640 N   0  0  0  0  0  0  0  0  0  0  0  0
   46.8650   58.2840   21.3670 H   0  0  0  0  0  0  0  0  0  0  0  0
   48.3350   59.0460   18.7610 O   0  0  0  0  0  0  0  0  0  0  0  0
   46.3210   60.7820   18.3090 C   0  0  0  0  0  0  0  0  0  0  0  0
   45.5580   62.0500   18.6990 C   0  0  2  0  0  0  0  0  0  0  0  0
   46.3040   62.7670   19.8270 C   0  0  0  0  0  0  0  0  0  0  0  0
   43.3820   62.9430   19.5420 C   0  0  0  0  0  0  0  0  0  0  0  0
   44.1540   61.6740   19.1750 C   0  0  0  0  0  0  0  0  0  0  0  0
   45.4610   62.9150   17.5660 O   0  0  0  0  0  0  0  0  0  0  0  0
   46.2710   62.9680   17.0410 H   0  0  0  0  0  0  0  0  0  0  0  0
   49.6640   54.1390   19.1280 C   0  0  0  0  0  0  0  0  0  0  0  0
   49.6880   53.2400   18.4360 N   0  0  0  0  0  0  0  0  0  0  0  0
   51.6610   54.5610   21.0480 O   0  0  0  0  0  0  0  0  0  0  0  0
   51.5080   53.5090   22.0030 C   0  0  0  0  0  0  0  0  0  0  0  0
   51.7830   52.1630   21.3270 C   0  0  0  0  0  0  0  0  0  0  0  0
   50.5700   51.5260   21.0480 F   0  0  0  0  0  0  0  0  0  0  0  0
   52.5460   51.3600   22.1820 F   0  0  0  0  0  0  0  0  0  0  0  0
   52.4850   52.3750   20.1360 F   0  0  0  0  0  0  0  0  0  0  0  0
  1  2  2  0  0  0  0
  2  3  1  0  0  0  0
  4 22  1  0  0  0  0
  4  3  2  0  0  0  0
  5  4  1  0  0  0  0
  6  5  2  0  0  0  0
  6  1  1  0  0  0  0
  7  9  1  0  0  0  0
  7  8  1  0  0  0  0
  9 10  1  0  0  0  0
 10  1  1  0  0  0  0
 10 11  1  0  0  0  0
 12  9  2  0  0  0  0
 13 14  1  0  0  0  0
 13  7  1  0  0  0  0
 14 18  1  6  0  0  0
 14 17  1  0  0  0  0
 14 15  1  0  0  0  0
 17 16  1  0  0  0  0
 19 18  1  0  0  0  0
 20  5  1  0  0  0  0
 21 20  3  0  0  0  0
 22 23  1  0  0  0  0
 24 23  1  0  0  0  0
 24 26  1  0  0  0  0
 25 24  1  0  0  0  0
 27 24  1  0  0  0  0
M  END
>  <MODEL>
9

>  <REMARK>
  Name = ZINC66159442
                            x       y       z     vdW  Elec       q    Type
                         _______ _______ _______ _____ _____    ______ ____

>  <TORSDO>
F 9

>  <minimizedAffinity>
-6.8248957471822624

$$$$
ZINC45970273
 OpenBabel10211216003D

 29 30  0  0  1  0  0  0  0  0999 V2000
   50.7820   52.4440   19.3020 C   0  0  2  0  0  0  0  0  0  0  0  0
   50.0610   53.5640   19.9120 N   0  0  0  0  0  0  0  0  0  0  0  0
   49.3250   53.3930   20.5210 H   0  0  0  0  0  0  0  0  0  0  0  0
   50.4190   54.8310   19.6280 C   0  0  0  0  0  0  0  0  0  0  0  0
   51.3420   55.0460   18.8640 O   0  0  0  0  0  0  0  0  0  0  0  0
   49.6920   55.9590   20.2430 C   0  0  0  0  0  0  0  0  0  0  0  0
   48.4300   56.3210   19.7700 C   0  0  0  0  0  0  0  0  0  0  0  0
   47.7560   57.3750   20.3480 C   0  0  0  0  0  0  0  0  0  0  0  0
   48.3260   58.0780   21.3970 C   0  0  0  0  0  0  0  0  0  0  0  0
   49.5740   57.7300   21.8750 C   0  0  0  0  0  0  0  0  0  0  0  0
   50.2640   56.6680   21.3080 C   0  0  0  0  0  0  0  0  0  0  0  0
   51.4880   56.3220   21.7780 O   0  0  0  0  0  0  0  0  0  0  0  0
   52.4960   57.3340   21.7700 C   0  0  0  0  0  0  0  0  0  0  0  0
   49.9560   51.8640   18.1820 C   0  0  0  0  0  0  0  0  0  0  0  0
   49.6330   50.5560   18.1920 N   0  0  0  0  0  0  0  0  0  0  0  0
   49.9880   49.9730   18.8810 H   0  0  0  0  0  0  0  0  0  0  0  0
   49.5820   52.5750   17.2740 O   0  0  0  0  0  0  0  0  0  0  0  0
   48.7850   50.0360   17.2050 N   0  0  0  0  0  0  0  0  0  0  0  0
   49.0340   50.1020   16.2690 H   0  0  0  0  0  0  0  0  0  0  0  0
   47.5820   49.4240   17.5670 C   0  0  0  0  0  0  0  0  0  0  0  0
   46.4360   49.6450   16.8140 C   0  0  0  0  0  0  0  0  0  0  0  0
   45.2470   49.0390   17.1730 C   0  0  0  0  0  0  0  0  0  0  0  0
   45.1990   48.2120   18.2830 C   0  0  0  0  0  0  0  0  0  0  0  0
   44.0360   47.6200   18.6320 F   0  0  0  0  0  0  0  0  0  0  0  0
   46.3400   47.9910   19.0350 C   0  0  0  0  0  0  0  0  0  0  0  0
   47.5310   48.5900   18.6770 C   0  0  0  0  0  0  0  0  0  0  0  0
   52.4390   50.7860   20.1660 C   0  0  0  0  0  0  0  0  0  0  0  0
   51.0380   51.3660   20.3580 C   0  0  0  0  0  0  0  0  0  0  0  0
   50.9280   51.9840   21.7540 C   0  0  0  0  0  0  0  0  0  0  0  0
  1 14  1  1  0  0  0
  1  2  1  0  0  0  0
  1 28  1  0  0  0  0
  2  3  1  0  0  0  0
  4  2  1  0  0  0  0
  4  6  1  0  0  0  0
  5  4  2  0  0  0  0
  6 11  1  0  0  0  0
  7  6  2  0  0  0  0
  7  8  1  0  0  0  0
  8  9  2  0  0  0  0
  9 10  1  0  0  0  0
 11 12  1  0  0  0  0
 11 10  2  0  0  0  0
 13 12  1  0  0  0  0
 14 15  1  0  0  0  0
 15 16  1  0  0  0  0
 17 14  2  0  0  0  0
 18 20  1  0  0  0  0
 18 15  1  0  0  0  0
 19 18  1  0  0  0  0
 20 26  2  0  0  0  0
 21 22  2  0  0  0  0
 21 20  1  0  0  0  0
 22 23  1  0  0  0  0
 23 24  1  0  0  0  0
 23 25  2  0  0  0  0
 26 25  1  0  0  0  0
 27 28  1  0  0  0  0
 28 29  1  0  0  0  0
M  END
>  <MODEL>
1

>  <REMARK>
  Name = ZINC45970273
                            x       y       z     vdW  Elec       q    Type
                         _______ _______ _______ _____ _____    ______ ____

>  <TORSDO>
F 7

>  <minimizedAffinity>
-9.1664980518916135

$$$$
ZINC45970273
 OpenBabel10211216003D

 29 30  0  0  1  0  0  0  0  0999 V2000
   51.1450   51.4160   18.7520 C   0  0  2  0  0  0  0  0  0  0  0  0
   50.7530   52.5560   19.5850 N   0  0  0  0  0  0  0  0  0  0  0  0
   50.0460   52.4560   20.2430 H   0  0  0  0  0  0  0  0  0  0  0  0
   51.3740   53.7420   19.4400 C   0  0  0  0  0  0  0  0  0  0  0  0
   52.2610   53.8680   18.6160 O   0  0  0  0  0  0  0  0  0  0  0  0
   50.9790   54.8900   20.2790 C   0  0  0  0  0  0  0  0  0  0  0  0
   51.8490   55.3780   21.2560 C   0  0  0  0  0  0  0  0  0  0  0  0
   51.4750   56.4510   22.0360 C   0  0  0  0  0  0  0  0  0  0  0  0
   50.2370   57.0470   21.8560 C   0  0  0  0  0  0  0  0  0  0  0  0
   49.3670   56.5750   20.8930 C   0  0  0  0  0  0  0  0  0  0  0  0
   49.7300   55.5000   20.0960 C   0  0  0  0  0  0  0  0  0  0  0  0
   48.8780   55.0380   19.1470 O   0  0  0  0  0  0  0  0  0  0  0  0
   48.7140   55.8400   17.9760 C   0  0  0  0  0  0  0  0  0  0  0  0
   50.0430   51.1090   17.7710 C   0  0  0  0  0  0  0  0  0  0  0  0
   49.8480   49.8420   17.3540 N   0  0  0  0  0  0  0  0  0  0  0  0
   50.4570   49.1400   17.6310 H   0  0  0  0  0  0  0  0  0  0  0  0
   49.3330   52.0000   17.3570 O   0  0  0  0  0  0  0  0  0  0  0  0
   48.7650   49.5390   16.5180 N   0  0  0  0  0  0  0  0  0  0  0  0
   48.8490   49.6460   15.5570 H   0  0  0  0  0  0  0  0  0  0  0  0
   47.5630   49.0830   17.0680 C   0  0  0  0  0  0  0  0  0  0  0  0
   46.3800   49.2070   16.3500 C   0  0  0  0  0  0  0  0  0  0  0  0
   45.1930   48.7570   16.8950 C   0  0  0  0  0  0  0  0  0  0  0  0
   45.1820   48.1810   18.1550 C   0  0  0  0  0  0  0  0  0  0  0  0
   44.0200   47.7420   18.6850 F   0  0  0  0  0  0  0  0  0  0  0  0
   46.3600   48.0570   18.8720 C   0  0  0  0  0  0  0  0  0  0  0  0
   47.5500   48.5020   18.3290 C   0  0  0  0  0  0  0  0  0  0  0  0
   52.8810   49.8490   19.6300 C   0  0  0  0  0  0  0  0  0  0  0  0
   51.3920   50.1960   19.6410 C   0  0  0  0  0  0  0  0  0  0  0  0
   50.9520   50.5100   21.0730 C   0  0  0  0  0  0  0  0  0  0  0  0
  1 14  1  1  0  0  0
  1  2  1  0  0  0  0
  1 28  1  0  0  0  0
  2  3  1  0  0  0  0
  4  2  1  0  0  0  0
  4  6  1  0  0  0  0
  5  4  2  0  0  0  0
  6  7  1  0  0  0  0
  7  8  2  0  0  0  0
  9  8  1  0  0  0  0
 10  9  2  0  0  0  0
 11  6  2  0  0  0  0
 11 10  1  0  0  0  0
 12 11  1  0  0  0  0
 13 12  1  0  0  0  0
 15 16  1  0  0  0  0
 15 14  1  0  0  0  0
 17 14  2  0  0  0  0
 18 20  1  0  0  0  0
 18 15  1  0  0  0  0
 19 18  1  0  0  0  0
 20 26  2  0  0  0  0
 21 22  2  0  0  0  0
 21 20  1  0  0  0  0
 22 23  1  0  0  0  0
 23 24  1  0  0  0  0
 23 25  2  0  0  0  0
 26 25  1  0  0  0  0
 27 28  1  0  0  0  0
 28 29  1  0  0  0  0
M  END
>  <MODEL>
2

>  <REMARK>
  Name = ZINC45970273
                            x       y       z     vdW  Elec       q    Type
                         _______ _______ _______ _____ _____    ______ ____

>  <TORSDO>
F 7

>  <minimizedAffinity>
-8.9565328670732267

$$$$
ZINC45970273
 OpenBabel10211216003D

 29 30  0  0  1  0  0  0  0  0999 V2000
   51.5460   52.9050   19.6400 C   0  0  2  0  0  0  0  0  0  0  0  0
   50.5820   53.9160   20.0830 N   0  0  0  0  0  0  0  0  0  0  0  0
   49.7840   53.6460   20.5640 H   0  0  0  0  0  0  0  0  0  0  0  0
   50.8050   55.2190   19.8260 C   0  0  0  0  0  0  0  0  0  0  0  0
   51.8070   55.5570   19.2240 O   0  0  0  0  0  0  0  0  0  0  0  0
   49.8350   56.2370   20.2740 C   0  0  0  0  0  0  0  0  0  0  0  0
   50.0960   57.0040   21.4100 C   0  0  0  0  0  0  0  0  0  0  0  0
   49.1870   57.9540   21.8230 C   0  0  0  0  0  0  0  0  0  0  0  0
   48.0120   58.1500   21.1150 C   0  0  0  0  0  0  0  0  0  0  0  0
   47.7400   57.3980   19.9890 C   0  0  0  0  0  0  0  0  0  0  0  0
   48.6480   56.4410   19.5570 C   0  0  0  0  0  0  0  0  0  0  0  0
   48.3850   55.7050   18.4490 O   0  0  0  0  0  0  0  0  0  0  0  0
   48.4750   56.3720   17.1890 C   0  0  0  0  0  0  0  0  0  0  0  0
   50.9080   52.0290   18.5930 C   0  0  0  0  0  0  0  0  0  0  0  0
   49.5740   52.0680   18.4050 N   0  0  0  0  0  0  0  0  0  0  0  0
   49.0170   52.6070   18.9880 H   0  0  0  0  0  0  0  0  0  0  0  0
   51.5940   51.2900   17.9200 O   0  0  0  0  0  0  0  0  0  0  0  0
   48.9900   51.3270   17.3680 N   0  0  0  0  0  0  0  0  0  0  0  0
   49.2660   51.4780   16.4500 H   0  0  0  0  0  0  0  0  0  0  0  0
   48.0120   50.3710   17.6560 C   0  0  0  0  0  0  0  0  0  0  0  0
   46.7560   50.4630   17.0680 C   0  0  0  0  0  0  0  0  0  0  0  0
   45.7900   49.5180   17.3540 C   0  0  0  0  0  0  0  0  0  0  0  0
   46.0730   48.4790   18.2250 C   0  0  0  0  0  0  0  0  0  0  0  0
   45.1270   47.5560   18.5020 F   0  0  0  0  0  0  0  0  0  0  0  0
   47.3240   48.3850   18.8120 C   0  0  0  0  0  0  0  0  0  0  0  0
   48.2940   49.3250   18.5250 C   0  0  0  0  0  0  0  0  0  0  0  0
   51.7470   52.8290   22.1280 C   0  0  0  0  0  0  0  0  0  0  0  0
   51.9720   52.0480   20.8330 C   0  0  0  0  0  0  0  0  0  0  0  0
   51.1390   50.7630   20.8610 C   0  0  0  0  0  0  0  0  0  0  0  0
  1 14  1  1  0  0  0
  1  2  1  0  0  0  0
  1 28  1  0  0  0  0
  2  3  1  0  0  0  0
  4  2  1  0  0  0  0
  4  6  1  0  0  0  0
  5  4  2  0  0  0  0
  6  7  2  0  0  0  0
  7  8  1  0  0  0  0
  9  8  2  0  0  0  0
 10  9  1  0  0  0  0
 11 10  2  0  0  0  0
 11  6  1  0  0  0  0
 12 11  1  0  0  0  0
 13 12  1  0  0  0  0
 15 14  1  0  0  0  0
 15 16  1  0  0  0  0
 17 14  2  0  0  0  0
 18 20  1  0  0  0  0
 18 15  1  0  0  0  0
 19 18  1  0  0  0  0
 20 26  2  0  0  0  0
 21 22  2  0  0  0  0
 21 20  1  0  0  0  0
 22 23  1  0  0  0  0
 23 24  1  0  0  0  0
 23 25  2  0  0  0  0
 26 25  1  0  0  0  0
 28 29  1  0  0  0  0
 28 27  1  0  0  0  0
M  END
>  <MODEL>
3

>  <REMARK>
  Name = ZINC45970273
                            x       y       z     vdW  Elec       q    Type
                         _______ _______ _______ _____ _____    ______ ____

>  <TORSDO>
F 7

>  <minimizedAffinity>
-8.8175266403684489

$$$$
ZINC45970273
 OpenBabel10211216003D

 29 30  0  0  1  0  0  0  0  0999 V2000
   50.7160   52.2010   18.4120 C   0  0  2  0  0  0  0  0  0  0  0  0
   50.4010   53.3370   19.2820 N   0  0  0  0  0  0  0  0  0  0  0  0
   50.7500   53.3670   20.1870 H   0  0  0  0  0  0  0  0  0  0  0  0
   49.6300   54.3430   18.8260 C   0  0  0  0  0  0  0  0  0  0  0  0
   49.1930   54.3070   17.6900 O   0  0  0  0  0  0  0  0  0  0  0  0
   49.3140   55.4870   19.7020 C   0  0  0  0  0  0  0  0  0  0  0  0
   48.0160   56.0000   19.7450 C   0  0  0  0  0  0  0  0  0  0  0  0
   47.7260   57.0690   20.5660 C   0  0  0  0  0  0  0  0  0  0  0  0
   48.7180   57.6380   21.3480 C   0  0  0  0  0  0  0  0  0  0  0  0
   50.0060   57.1400   21.3150 C   0  0  0  0  0  0  0  0  0  0  0  0
   50.3140   56.0620   20.4990 C   0  0  0  0  0  0  0  0  0  0  0  0
   51.5770   55.5690   20.4680 O   0  0  0  0  0  0  0  0  0  0  0  0
   52.6400   56.4960   20.6940 C   0  0  0  0  0  0  0  0  0  0  0  0
   49.8710   51.0170   18.8080 C   0  0  0  0  0  0  0  0  0  0  0  0
   48.8170   50.6590   18.0490 N   0  0  0  0  0  0  0  0  0  0  0  0
   48.5610   51.2010   17.2870 H   0  0  0  0  0  0  0  0  0  0  0  0
   50.1400   50.3880   19.8090 O   0  0  0  0  0  0  0  0  0  0  0  0
   48.0900   49.5020   18.3610 N   0  0  0  0  0  0  0  0  0  0  0  0
   48.2950   49.0040   19.1680 H   0  0  0  0  0  0  0  0  0  0  0  0
   47.0700   49.0660   17.5110 C   0  0  0  0  0  0  0  0  0  0  0  0
   47.3110   48.9320   16.1490 C   0  0  0  0  0  0  0  0  0  0  0  0
   46.3020   48.5000   15.3100 C   0  0  0  0  0  0  0  0  0  0  0  0
   45.0510   48.2020   15.8250 C   0  0  0  0  0  0  0  0  0  0  0  0
   44.0660   47.7800   15.0030 F   0  0  0  0  0  0  0  0  0  0  0  0
   44.8090   48.3360   17.1820 C   0  0  0  0  0  0  0  0  0  0  0  0
   45.8170   48.7620   18.0250 C   0  0  0  0  0  0  0  0  0  0  0  0
   52.6270   50.9700   17.3770 C   0  0  0  0  0  0  0  0  0  0  0  0
   52.1960   51.8430   18.5570 C   0  0  0  0  0  0  0  0  0  0  0  0
   53.0320   53.1240   18.5760 C   0  0  0  0  0  0  0  0  0  0  0  0
  1 28  1  1  0  0  0
  1 14  1  0  0  0  0
  1  2  1  0  0  0  0
  2  3  1  0  0  0  0
  4  2  1  0  0  0  0
  4  6  1  0  0  0  0
  5  4  2  0  0  0  0
  6  7  2  0  0  0  0
  6 11  1  0  0  0  0
  7  8  1  0  0  0  0
  8  9  2  0  0  0  0
 10  9  1  0  0  0  0
 11 10  2  0  0  0  0
 12 11  1  0  0  0  0
 12 13  1  0  0  0  0
 14 17  2  0  0  0  0
 15 18  1  0  0  0  0
 15 14  1  0  0  0  0
 16 15  1  0  0  0  0
 18 19  1  0  0  0  0
 20 26  1  0  0  0  0
 20 18  1  0  0  0  0
 21 20  2  0  0  0  0
 22 23  2  0  0  0  0
 22 21  1  0  0  0  0
 23 25  1  0  0  0  0
 24 23  1  0  0  0  0
 25 26  2  0  0  0  0
 27 28  1  0  0  0  0
 28 29  1  0  0  0  0
M  END
>  <MODEL>
4

>  <REMARK>
  Name = ZINC45970273
                            x       y       z     vdW  Elec       q    Type
                         _______ _______ _______ _____ _____    ______ ____

>  <TORSDO>
F 7

>  <minimizedAffinity>
-8.3422993229980005

$$$$
ZINC45970273
 OpenBabel10211216003D

 29 30  0  0  1  0  0  0  0  0999 V2000
   50.9960   51.0640   20.1660 C   0  0  2  0  0  0  0  0  0  0  0  0
   49.9770   50.8540   19.1340 N   0  0  0  0  0  0  0  0  0  0  0  0
   49.7240   51.5840   18.5470 H   0  0  0  0  0  0  0  0  0  0  0  0
   49.3940   49.6470   18.9980 C   0  0  0  0  0  0  0  0  0  0  0  0
   49.7130   48.7310   19.7330 O   0  0  0  0  0  0  0  0  0  0  0  0
   48.3690   49.4360   17.9580 C   0  0  0  0  0  0  0  0  0  0  0  0
   47.0770   49.0440   18.3150 C   0  0  0  0  0  0  0  0  0  0  0  0
   46.1240   48.8490   17.3390 C   0  0  0  0  0  0  0  0  0  0  0  0
   46.4410   49.0390   16.0040 C   0  0  0  0  0  0  0  0  0  0  0  0
   47.7140   49.4270   15.6370 C   0  0  0  0  0  0  0  0  0  0  0  0
   48.6850   49.6330   16.6060 C   0  0  0  0  0  0  0  0  0  0  0  0
   49.9350   50.0180   16.2480 O   0  0  0  0  0  0  0  0  0  0  0  0
   50.3050   49.8310   14.8810 C   0  0  0  0  0  0  0  0  0  0  0  0
   50.7460   52.3800   20.8570 C   0  0  0  0  0  0  0  0  0  0  0  0
   50.4420   53.4740   20.1310 N   0  0  0  0  0  0  0  0  0  0  0  0
   50.4500   53.4310   19.1620 H   0  0  0  0  0  0  0  0  0  0  0  0
   50.8190   52.4540   22.0650 O   0  0  0  0  0  0  0  0  0  0  0  0
   50.1150   54.6740   20.7760 N   0  0  0  0  0  0  0  0  0  0  0  0
   50.3990   54.8250   21.6910 H   0  0  0  0  0  0  0  0  0  0  0  0
   49.3800   55.6530   20.1010 C   0  0  0  0  0  0  0  0  0  0  0  0
   48.8110   56.7050   20.8080 C   0  0  0  0  0  0  0  0  0  0  0  0
   48.0840   57.6720   20.1400 C   0  0  0  0  0  0  0  0  0  0  0  0
   47.9230   57.5920   18.7670 C   0  0  0  0  0  0  0  0  0  0  0  0
   47.2130   58.5390   18.1160 F   0  0  0  0  0  0  0  0  0  0  0  0
   48.4890   56.5440   18.0600 C   0  0  0  0  0  0  0  0  0  0  0  0
   49.2200   55.5790   18.7240 C   0  0  0  0  0  0  0  0  0  0  0  0
   53.0390   49.7110   19.6830 C   0  0  0  0  0  0  0  0  0  0  0  0
   52.3820   51.0820   19.5190 C   0  0  0  0  0  0  0  0  0  0  0  0
   52.2450   51.4080   18.0300 C   0  0  0  0  0  0  0  0  0  0  0  0
  1  2  1  6  0  0  0
  1 14  1  0  0  0  0
  3  2  1  0  0  0  0
  4  2  1  0  0  0  0
  4  5  2  0  0  0  0
  6  7  1  0  0  0  0
  6  4  1  0  0  0  0
  8  7  2  0  0  0  0
  9  8  1  0  0  0  0
 10  9  2  0  0  0  0
 10 11  1  0  0  0  0
 11  6  2  0  0  0  0
 12 11  1  0  0  0  0
 13 12  1  0  0  0  0
 14 17  2  0  0  0  0
 15 18  1  0  0  0  0
 15 14  1  0  0  0  0
 16 15  1  0  0  0  0
 18 19  1  0  0  0  0
 20 18  1  0  0  0  0
 20 21  2  0  0  0  0
 22 21  1  0  0  0  0
 23 22  2  0  0  0  0
 24 23  1  0  0  0  0
 25 26  2  0  0  0  0
 25 23  1  0  0  0  0
 26 20  1  0  0  0  0
 28 27  1  0  0  0  0
 28  1  1  0  0  0  0
 29 28  1  0  0  0  0
M  END
>  <MODEL>
5

>  <REMARK>
  Name = ZINC45970273
                            x       y       z     vdW  Elec       q    Type
                         _______ _______ _______ _____ _____    ______ ____

>  <TORSDO>
F 7

>  <minimizedAffinity>
-8.2570650294978236

$$$$
ZINC45970273
 OpenBabel10211216003D

 29 30  0  0  1  0  0  0  0  0999 V2000
   49.2240   51.7890   17.1740 C   0  0  2  0  0  0  0  0  0  0  0  0
   48.0930   50.9420   17.5630 N   0  0  0  0  0  0  0  0  0  0  0  0
   47.4130   51.2870   18.1640 H   0  0  0  0  0  0  0  0  0  0  0  0
   47.9940   49.6870   17.0840 C   0  0  0  0  0  0  0  0  0  0  0  0
   48.8450   49.2550   16.3290 O   0  0  0  0  0  0  0  0  0  0  0  0
   46.8550   48.8350   17.4760 C   0  0  0  0  0  0  0  0  0  0  0  0
   46.7460   48.3660   18.7860 C   0  0  0  0  0  0  0  0  0  0  0  0
   45.6800   47.5710   19.1460 C   0  0  0  0  0  0  0  0  0  0  0  0
   44.7130   47.2340   18.2120 C   0  0  0  0  0  0  0  0  0  0  0  0
   44.8070   47.6920   16.9130 C   0  0  0  0  0  0  0  0  0  0  0  0
   45.8720   48.4970   16.5350 C   0  0  0  0  0  0  0  0  0  0  0  0
   45.9640   48.9510   15.2600 O   0  0  0  0  0  0  0  0  0  0  0  0
   46.1920   47.9770   14.2400 C   0  0  0  0  0  0  0  0  0  0  0  0
   50.2590   51.7760   18.2690 C   0  0  0  0  0  0  0  0  0  0  0  0
   51.3650   52.5390   18.1580 N   0  0  0  0  0  0  0  0  0  0  0  0
   51.5280   53.0430   17.3460 H   0  0  0  0  0  0  0  0  0  0  0  0
   50.0980   51.0810   19.2490 O   0  0  0  0  0  0  0  0  0  0  0  0
   52.2800   52.6040   19.2170 N   0  0  0  0  0  0  0  0  0  0  0  0
   53.0560   52.0210   19.2230 H   0  0  0  0  0  0  0  0  0  0  0  0
   52.0770   53.5070   20.2640 C   0  0  0  0  0  0  0  0  0  0  0  0
   52.1860   54.8730   20.0350 C   0  0  0  0  0  0  0  0  0  0  0  0
   51.9840   55.7640   21.0710 C   0  0  0  0  0  0  0  0  0  0  0  0
   51.6740   55.2970   22.3370 C   0  0  0  0  0  0  0  0  0  0  0  0
   51.4770   56.1700   23.3490 F   0  0  0  0  0  0  0  0  0  0  0  0
   51.5650   53.9350   22.5680 C   0  0  0  0  0  0  0  0  0  0  0  0
   51.7610   53.0410   21.5340 C   0  0  0  0  0  0  0  0  0  0  0  0
   47.4380   53.1970   16.1400 C   0  0  0  0  0  0  0  0  0  0  0  0
   48.7360   53.2210   16.9490 C   0  0  0  0  0  0  0  0  0  0  0  0
   48.4810   53.8910   18.3010 C   0  0  0  0  0  0  0  0  0  0  0  0
  1 28  1  1  0  0  0
  1  2  1  0  0  0  0
  1 14  1  0  0  0  0
  2  3  1  0  0  0  0
  4  6  1  0  0  0  0
  4  2  1  0  0  0  0
  5  4  2  0  0  0  0
  6  7  2  0  0  0  0
  7  8  1  0  0  0  0
  9  8  2  0  0  0  0
 10  9  1  0  0  0  0
 11 10  2  0  0  0  0
 11  6  1  0  0  0  0
 12 11  1  0  0  0  0
 13 12  1  0  0  0  0
 14 17  2  0  0  0  0
 15 14  1  0  0  0  0
 15 18  1  0  0  0  0
 16 15  1  0  0  0  0
 18 19  1  0  0  0  0
 18 20  1  0  0  0  0
 20 26  1  0  0  0  0
 21 20  2  0  0  0  0
 21 22  1  0  0  0  0
 22 23  2  0  0  0  0
 23 25  1  0  0  0  0
 23 24  1  0  0  0  0
 26 25  2  0  0  0  0
 27 28  1  0  0  0  0
 28 29  1  0  0  0  0
M  END
>  <MODEL>
6

>  <REMARK>
  Name = ZINC45970273
                            x       y       z     vdW  Elec       q    Type
                         _______ _______ _______ _____ _____    ______ ____

>  <TORSDO>
F 7

>  <minimizedAffinity>
-8.248404713274752

$$$$
ZINC45970273
 OpenBabel10211216003D

 29 30  0  0  1  0  0  0  0  0999 V2000
   52.2260   52.8300   19.7260 C   0  0  2  0  0  0  0  0  0  0  0  0
   51.1610   53.7900   20.0290 N   0  0  0  0  0  0  0  0  0  0  0  0
   50.2330   53.5100   19.9990 H   0  0  0  0  0  0  0  0  0  0  0  0
   51.4710   55.0610   20.3510 C   0  0  0  0  0  0  0  0  0  0  0  0
   52.6350   55.4120   20.3900 O   0  0  0  0  0  0  0  0  0  0  0  0
   50.3980   56.0270   20.6560 C   0  0  0  0  0  0  0  0  0  0  0  0
   49.1360   55.8810   20.0780 C   0  0  0  0  0  0  0  0  0  0  0  0
   48.1380   56.7860   20.3680 C   0  0  0  0  0  0  0  0  0  0  0  0
   48.3820   57.8430   21.2290 C   0  0  0  0  0  0  0  0  0  0  0  0
   49.6260   58.0000   21.8080 C   0  0  0  0  0  0  0  0  0  0  0  0
   50.6400   57.0950   21.5320 C   0  0  0  0  0  0  0  0  0  0  0  0
   51.8620   57.2450   22.1030 O   0  0  0  0  0  0  0  0  0  0  0  0
   52.6100   58.4060   21.7380 C   0  0  0  0  0  0  0  0  0  0  0  0
   51.9050   52.1130   18.4400 C   0  0  0  0  0  0  0  0  0  0  0  0
   50.6200   51.9180   18.0810 N   0  0  0  0  0  0  0  0  0  0  0  0
   49.9040   52.1770   18.6810 H   0  0  0  0  0  0  0  0  0  0  0  0
   52.8010   51.7130   17.7280 O   0  0  0  0  0  0  0  0  0  0  0  0
   50.3190   51.3390   16.8410 N   0  0  0  0  0  0  0  0  0  0  0  0
   50.5460   51.8050   16.0210 H   0  0  0  0  0  0  0  0  0  0  0  0
   49.6920   50.0910   16.7850 C   0  0  0  0  0  0  0  0  0  0  0  0
   49.4430   49.4930   15.5560 C   0  0  0  0  0  0  0  0  0  0  0  0
   48.8230   48.2590   15.5030 C   0  0  0  0  0  0  0  0  0  0  0  0
   48.4510   47.6190   16.6730 C   0  0  0  0  0  0  0  0  0  0  0  0
   47.8450   46.4130   16.6190 F   0  0  0  0  0  0  0  0  0  0  0  0
   48.6980   48.2140   17.8990 C   0  0  0  0  0  0  0  0  0  0  0  0
   49.3220   49.4440   17.9580 C   0  0  0  0  0  0  0  0  0  0  0  0
   51.0270   51.7950   21.6570 C   0  0  0  0  0  0  0  0  0  0  0  0
   52.3340   51.8130   20.8640 C   0  0  0  0  0  0  0  0  0  0  0  0
   52.5970   50.4220   20.2820 C   0  0  0  0  0  0  0  0  0  0  0  0
  1 14  1  1  0  0  0
  1  2  1  0  0  0  0
  1 28  1  0  0  0  0
  2  4  1  0  0  0  0
  3  2  1  0  0  0  0
  4  5  2  0  0  0  0
  4  6  1  0  0  0  0
  6 11  2  0  0  0  0
  7  8  2  0  0  0  0
  7  6  1  0  0  0  0
  8  9  1  0  0  0  0
  9 10  2  0  0  0  0
 11 10  1  0  0  0  0
 11 12  1  0  0  0  0
 13 12  1  0  0  0  0
 15 14  1  0  0  0  0
 15 16  1  0  0  0  0
 17 14  2  0  0  0  0
 18 15  1  0  0  0  0
 19 18  1  0  0  0  0
 20 18  1  0  0  0  0
 20 26  2  0  0  0  0
 21 20  1  0  0  0  0
 22 21  2  0  0  0  0
 22 23  1  0  0  0  0
 23 25  2  0  0  0  0
 24 23  1  0  0  0  0
 25 26  1  0  0  0  0
 28 27  1  0  0  0  0
 29 28  1  0  0  0  0
M  END
>  <MODEL>
7

>  <REMARK>
  Name = ZINC45970273
                            x       y       z     vdW  Elec       q    Type
                         _______ _______ _______ _____ _____    ______ ____

>  <TORSDO>
F 7

>  <minimizedAffinity>
-8.2315315555329374

$$$$
ZINC45970273
 OpenBabel10211216003D

 29 30  0  0  1  0  0  0  0  0999 V2000
   50.9140   51.8810   19.0780 C   0  0  2  0  0  0  0  0  0  0  0  0
   50.0310   51.1130   18.1980 N   0  0  0  0  0  0  0  0  0  0  0  0
   49.8790   51.4070   17.2850 H   0  0  0  0  0  0  0  0  0  0  0  0
   49.4300   49.9960   18.6530 C   0  0  0  0  0  0  0  0  0  0  0  0
   49.6210   49.6260   19.7960 O   0  0  0  0  0  0  0  0  0  0  0  0
   48.5410   49.2220   17.7660 C   0  0  0  0  0  0  0  0  0  0  0  0
   47.4470   48.5340   18.2950 C   0  0  0  0  0  0  0  0  0  0  0  0
   46.6190   47.8130   17.4620 C   0  0  0  0  0  0  0  0  0  0  0  0
   46.8680   47.7670   16.0990 C   0  0  0  0  0  0  0  0  0  0  0  0
   47.9450   48.4430   15.5630 C   0  0  0  0  0  0  0  0  0  0  0  0
   48.7860   49.1780   16.3860 C   0  0  0  0  0  0  0  0  0  0  0  0
   49.8420   49.8460   15.8600 O   0  0  0  0  0  0  0  0  0  0  0  0
   50.2780   49.4490   14.5590 C   0  0  0  0  0  0  0  0  0  0  0  0
   50.8100   53.3460   18.7390 C   0  0  0  0  0  0  0  0  0  0  0  0
   49.6110   53.9610   18.7740 N   0  0  0  0  0  0  0  0  0  0  0  0
   48.8070   53.4480   18.9500 H   0  0  0  0  0  0  0  0  0  0  0  0
   51.8040   53.9710   18.4350 O   0  0  0  0  0  0  0  0  0  0  0  0
   49.5260   55.3420   18.5540 N   0  0  0  0  0  0  0  0  0  0  0  0
   49.6090   55.6960   17.6540 H   0  0  0  0  0  0  0  0  0  0  0  0
   49.3210   56.2110   19.6300 C   0  0  0  0  0  0  0  0  0  0  0  0
   48.1300   56.9170   19.7360 C   0  0  0  0  0  0  0  0  0  0  0  0
   47.9290   57.7750   20.8000 C   0  0  0  0  0  0  0  0  0  0  0  0
   48.9150   57.9310   21.7600 C   0  0  0  0  0  0  0  0  0  0  0  0
   48.7170   58.7710   22.8000 F   0  0  0  0  0  0  0  0  0  0  0  0
   50.1040   57.2290   21.6560 C   0  0  0  0  0  0  0  0  0  0  0  0
   50.3060   56.3660   20.5970 C   0  0  0  0  0  0  0  0  0  0  0  0
   52.7170   50.4010   19.9730 C   0  0  0  0  0  0  0  0  0  0  0  0
   52.3580   51.4140   18.8850 C   0  0  0  0  0  0  0  0  0  0  0  0
   52.5030   50.7590   17.5090 C   0  0  0  0  0  0  0  0  0  0  0  0
  1  2  1  6  0  0  0
  2  4  1  0  0  0  0
  3  2  1  0  0  0  0
  4  5  2  0  0  0  0
  6  7  1  0  0  0  0
  6  4  1  0  0  0  0
  8  7  2  0  0  0  0
  9  8  1  0  0  0  0
 10  9  2  0  0  0  0
 10 11  1  0  0  0  0
 11  6  2  0  0  0  0
 12 11  1  0  0  0  0
 13 12  1  0  0  0  0
 14 15  1  0  0  0  0
 14  1  1  0  0  0  0
 15 16  1  0  0  0  0
 17 14  2  0  0  0  0
 18 15  1  0  0  0  0
 18 20  1  0  0  0  0
 19 18  1  0  0  0  0
 20 21  2  0  0  0  0
 20 26  1  0  0  0  0
 21 22  1  0  0  0  0
 22 23  2  0  0  0  0
 23 24  1  0  0  0  0
 25 23  1  0  0  0  0
 26 25  2  0  0  0  0
 28  1  1  0  0  0  0
 28 27  1  0  0  0  0
 29 28  1  0  0  0  0
M  END
>  <MODEL>
8

>  <REMARK>
  Name = ZINC45970273
                            x       y       z     vdW  Elec       q    Type
                         _______ _______ _______ _____ _____    ______ ____

>  <TORSDO>
F 7

>  <minimizedAffinity>
-8.1742847734436648

$$$$
ZINC45970273
 OpenBabel10211216003D

 29 30  0  0  1  0  0  0  0  0999 V2000
   48.6020   51.7590   16.7130 C   0  0  2  0  0  0  0  0  0  0  0  0
   47.7410   50.5820   16.5730 N   0  0  0  0  0  0  0  0  0  0  0  0
   47.0800   50.3800   17.2550 H   0  0  0  0  0  0  0  0  0  0  0  0
   47.8630   49.7810   15.4970 C   0  0  0  0  0  0  0  0  0  0  0  0
   48.6900   50.0340   14.6420 O   0  0  0  0  0  0  0  0  0  0  0  0
   46.9960   48.5960   15.3560 C   0  0  0  0  0  0  0  0  0  0  0  0
   46.3690   48.3260   14.1390 C   0  0  0  0  0  0  0  0  0  0  0  0
   45.5600   47.2170   14.0130 C   0  0  0  0  0  0  0  0  0  0  0  0
   45.3650   46.3680   15.0900 C   0  0  0  0  0  0  0  0  0  0  0  0
   45.9790   46.6230   16.3000 C   0  0  0  0  0  0  0  0  0  0  0  0
   46.8010   47.7320   16.4430 C   0  0  0  0  0  0  0  0  0  0  0  0
   47.4090   47.9820   17.6300 O   0  0  0  0  0  0  0  0  0  0  0  0
   46.5640   48.1410   18.7710 C   0  0  0  0  0  0  0  0  0  0  0  0
   49.6630   51.4840   17.7480 C   0  0  0  0  0  0  0  0  0  0  0  0
   50.8420   52.1340   17.6910 N   0  0  0  0  0  0  0  0  0  0  0  0
   51.0360   52.7260   16.9470 H   0  0  0  0  0  0  0  0  0  0  0  0
   49.4550   50.6800   18.6310 O   0  0  0  0  0  0  0  0  0  0  0  0
   51.7920   51.9520   18.7050 N   0  0  0  0  0  0  0  0  0  0  0  0
   52.4730   51.2660   18.6150 H   0  0  0  0  0  0  0  0  0  0  0  0
   51.7590   52.7570   19.8470 C   0  0  0  0  0  0  0  0  0  0  0  0
   51.5470   52.1850   21.0950 C   0  0  0  0  0  0  0  0  0  0  0  0
   51.5150   52.9830   22.2230 C   0  0  0  0  0  0  0  0  0  0  0  0
   51.6930   54.3520   22.1090 C   0  0  0  0  0  0  0  0  0  0  0  0
   51.6610   55.1290   23.2130 F   0  0  0  0  0  0  0  0  0  0  0  0
   51.9040   54.9240   20.8660 C   0  0  0  0  0  0  0  0  0  0  0  0
   51.9420   54.1300   19.7370 C   0  0  0  0  0  0  0  0  0  0  0  0
   48.5400   53.7820   18.1780 C   0  0  0  0  0  0  0  0  0  0  0  0
   47.7590   52.9580   17.1520 C   0  0  0  0  0  0  0  0  0  0  0  0
   47.4380   53.8290   15.9360 C   0  0  0  0  0  0  0  0  0  0  0  0
  1  2  1  1  0  0  0
  1 28  1  0  0  0  0
  1 14  1  0  0  0  0
  2  3  1  0  0  0  0
  4  2  1  0  0  0  0
  5  4  2  0  0  0  0
  6  4  1  0  0  0  0
  6 11  2  0  0  0  0
  7  6  1  0  0  0  0
  8  7  2  0  0  0  0
  8  9  1  0  0  0  0
  9 10  2  0  0  0  0
 10 11  1  0  0  0  0
 11 12  1  0  0  0  0
 12 13  1  0  0  0  0
 14 17  2  0  0  0  0
 15 14  1  0  0  0  0
 15 18  1  0  0  0  0
 16 15  1  0  0  0  0
 18 20  1  0  0  0  0
 19 18  1  0  0  0  0
 20 21  1  0  0  0  0
 21 22  2  0  0  0  0
 23 22  1  0  0  0  0
 23 24  1  0  0  0  0
 25 23  2  0  0  0  0
 26 20  2  0  0  0  0
 26 25  1  0  0  0  0
 28 27  1  0  0  0  0
 29 28  1  0  0  0  0
M  END
>  <MODEL>
9

>  <REMARK>
  Name = ZINC45970273
                            x       y       z     vdW  Elec       q    Type
                         _______ _______ _______ _____ _____    ______ ____

>  <TORSDO>
F 7

>  <minimizedAffinity>
-7.9288033841366294

$$$$
ZINC09497807
 OpenBabel10211216013D

 28 30  0  0  1  0  0  0  0  0999 V2000
   52.8750   53.1610   18.8090 C   0  0  0  0  0  0  0  0  0  0  0  0
   51.6250   52.5280   19.4250 C   0  0  1  0  0  0  0  0  0  0  0  0
   50.7840   53.6010   20.0660 C   0  0  0  0  0  0  0  0  0  0  0  0
   50.9420   54.8890   19.7040 N   0  0  0  0  0  0  0  0  0  0  0  0
   51.5980   55.1260   19.0300 H   0  0  0  0  0  0  0  0  0  0  0  0
   49.9640   53.3040   20.9090 O   0  0  0  0  0  0  0  0  0  0  0  0
   50.1670   55.8760   20.2950 C   0  0  0  0  0  0  0  0  0  0  0  0
   50.4850   56.6920   21.3740 C   0  0  0  0  0  0  0  0  0  0  0  0
   49.4830   57.6460   21.7830 C   0  0  0  0  0  0  0  0  0  0  0  0
   48.3270   57.6560   21.0960 C   0  0  0  0  0  0  0  0  0  0  0  0
   48.5670   56.3840   19.8730 S   0  0  0  0  0  0  0  0  0  0  0  0
   51.7780   56.5920   22.0600 C   0  0  0  0  0  0  0  0  0  0  0  0
   52.5600   57.6820   22.1840 N   0  0  0  0  0  0  0  0  0  0  0  0
   53.4150   57.6160   22.6380 H   0  0  0  0  0  0  0  0  0  0  0  0
   52.2690   58.5330   21.8190 H   0  0  0  0  0  0  0  0  0  0  0  0
   52.1420   55.5250   22.5170 O   0  0  0  0  0  0  0  0  0  0  0  0
   50.8570   51.8660   18.3860 O   0  0  0  0  0  0  0  0  0  0  0  0
   50.3720   50.6420   18.6700 C   0  0  0  0  0  0  0  0  0  0  0  0
   51.0700   49.8310   19.2450 O   0  0  0  0  0  0  0  0  0  0  0  0
   48.9930   50.2840   18.2800 C   0  0  0  0  0  0  0  0  0  0  0  0
   48.3050   51.0580   17.3430 C   0  0  0  0  0  0  0  0  0  0  0  0
   47.0180   50.7180   16.9860 C   0  0  0  0  0  0  0  0  0  0  0  0
   46.4020   49.6110   17.5520 C   0  0  0  0  0  0  0  0  0  0  0  0
   47.0790   48.8410   18.4820 C   0  0  0  0  0  0  0  0  0  0  0  0
   46.1930   47.7030   18.9430 C   0  0  0  0  0  0  0  0  0  0  0  0
   45.0780   47.6030   17.8810 C   0  0  0  0  0  0  0  0  0  0  0  0
   45.0180   49.0420   17.3260 C   0  0  0  0  0  0  0  0  0  0  0  0
   48.3690   49.1730   18.8470 C   0  0  0  0  0  0  0  0  0  0  0  0
  1  2  1  0  0  0  0
  2 17  1  6  0  0  0
  2  3  1  0  0  0  0
  3  6  2  0  0  0  0
  4  3  1  0  0  0  0
  4  7  1  0  0  0  0
  5  4  1  0  0  0  0
  7  8  2  0  0  0  0
  8  9  1  0  0  0  0
  8 12  1  0  0  0  0
 10  9  2  0  0  0  0
 11  7  1  0  0  0  0
 11 10  1  0  0  0  0
 12 13  1  0  0  0  0
 12 16  2  0  0  0  0
 13 14  1  0  0  0  0
 15 13  1  0  0  0  0
 17 18  1  0  0  0  0
 18 19  2  0  0  0  0
 20 18  1  0  0  0  0
 20 28  2  0  0  0  0
 21 20  1  0  0  0  0
 22 21  2  0  0  0  0
 22 23  1  0  0  0  0
 23 24  2  0  0  0  0
 24 28  1  0  0  0  0
 24 25  1  0  0  0  0
 26 25  1  0  0  0  0
 27 23  1  0  0  0  0
 27 26  1  0  0  0  0
M  END
>  <MODEL>
1

>  <REMARK>
  Name = ZINC09497807
                            x       y       z     vdW  Elec       q    Type
                         _______ _______ _______ _____ _____    ______ ____

>  <TORSDO>
F 6

>  <minimizedAffinity>
-9.599794313342791

$$$$
ZINC09497807
 OpenBabel10211216013D

 28 30  0  0  1  0  0  0  0  0999 V2000
   50.9200   49.6680   20.5260 C   0  0  0  0  0  0  0  0  0  0  0  0
   50.9730   50.9250   19.6540 C   0  0  1  0  0  0  0  0  0  0  0  0
   50.0680   50.7490   18.4630 C   0  0  0  0  0  0  0  0  0  0  0  0
   49.8060   49.5130   17.9910 N   0  0  0  0  0  0  0  0  0  0  0  0
   50.2010   48.7380   18.4190 H   0  0  0  0  0  0  0  0  0  0  0  0
   49.5740   51.7190   17.9290 O   0  0  0  0  0  0  0  0  0  0  0  0
   48.9730   49.3520   16.8950 C   0  0  0  0  0  0  0  0  0  0  0  0
   47.6300   48.9920   16.8780 C   0  0  0  0  0  0  0  0  0  0  0  0
   47.0000   48.9010   15.5820 C   0  0  0  0  0  0  0  0  0  0  0  0
   47.7660   49.1590   14.5070 C   0  0  0  0  0  0  0  0  0  0  0  0
   49.3530   49.5400   15.2170 S   0  0  0  0  0  0  0  0  0  0  0  0
   46.8890   48.7250   18.1140 C   0  0  0  0  0  0  0  0  0  0  0  0
   45.5470   48.6140   18.0840 N   0  0  0  0  0  0  0  0  0  0  0  0
   45.0560   48.4370   18.9030 H   0  0  0  0  0  0  0  0  0  0  0  0
   45.0700   48.7130   17.2450 H   0  0  0  0  0  0  0  0  0  0  0  0
   47.4870   48.6010   19.1660 O   0  0  0  0  0  0  0  0  0  0  0  0
   50.5350   52.0700   20.4310 O   0  0  0  0  0  0  0  0  0  0  0  0
   51.2950   53.1810   20.3650 C   0  0  0  0  0  0  0  0  0  0  0  0
   52.4440   53.1090   19.9800 O   0  0  0  0  0  0  0  0  0  0  0  0
   50.7300   54.4870   20.7620 C   0  0  0  0  0  0  0  0  0  0  0  0
   51.3990   55.2900   21.6870 C   0  0  0  0  0  0  0  0  0  0  0  0
   50.8650   56.5060   22.0520 C   0  0  0  0  0  0  0  0  0  0  0  0
   49.6650   56.9380   21.5060 C   0  0  0  0  0  0  0  0  0  0  0  0
   48.9960   56.1460   20.5890 C   0  0  0  0  0  0  0  0  0  0  0  0
   47.7230   56.8380   20.1500 C   0  0  0  0  0  0  0  0  0  0  0  0
   47.9050   58.3160   20.5570 C   0  0  0  0  0  0  0  0  0  0  0  0
   48.8870   58.2150   21.7440 C   0  0  0  0  0  0  0  0  0  0  0  0
   49.5230   54.9250   20.2160 C   0  0  0  0  0  0  0  0  0  0  0  0
  2  3  1  1  0  0  0
  2 17  1  0  0  0  0
  2  1  1  0  0  0  0
  4  5  1  0  0  0  0
  4  3  1  0  0  0  0
  6  3  2  0  0  0  0
  7  4  1  0  0  0  0
  8  7  2  0  0  0  0
  8 12  1  0  0  0  0
  9  8  1  0  0  0  0
 10 11  1  0  0  0  0
 10  9  2  0  0  0  0
 11  7  1  0  0  0  0
 12 16  2  0  0  0  0
 13 12  1  0  0  0  0
 13 14  1  0  0  0  0
 15 13  1  0  0  0  0
 18 17  1  0  0  0  0
 18 20  1  0  0  0  0
 19 18  2  0  0  0  0
 20 21  2  0  0  0  0
 21 22  1  0  0  0  0
 23 27  1  0  0  0  0
 23 22  2  0  0  0  0
 24 23  1  0  0  0  0
 25 26  1  0  0  0  0
 25 24  1  0  0  0  0
 26 27  1  0  0  0  0
 28 24  2  0  0  0  0
 28 20  1  0  0  0  0
M  END
>  <MODEL>
2

>  <REMARK>
  Name = ZINC09497807
                            x       y       z     vdW  Elec       q    Type
                         _______ _______ _______ _____ _____    ______ ____

>  <TORSDO>
F 6

>  <minimizedAffinity>
-9.0206231632257889

$$$$
ZINC09497807
 OpenBabel10211216013D

 28 30  0  0  1  0  0  0  0  0999 V2000
   51.2750   49.5020   20.1120 C   0  0  0  0  0  0  0  0  0  0  0  0
   50.9900   50.7380   19.2560 C   0  0  1  0  0  0  0  0  0  0  0  0
   49.8830   50.4290   18.2820 C   0  0  0  0  0  0  0  0  0  0  0  0
   49.7650   49.1900   17.7650 N   0  0  0  0  0  0  0  0  0  0  0  0
   50.3930   48.4970   18.0200 H   0  0  0  0  0  0  0  0  0  0  0  0
   49.0980   51.2970   17.9630 O   0  0  0  0  0  0  0  0  0  0  0  0
   48.7460   48.9060   16.8690 C   0  0  0  0  0  0  0  0  0  0  0  0
   48.7840   48.9410   15.4800 C   0  0  0  0  0  0  0  0  0  0  0  0
   47.5650   48.5920   14.7890 C   0  0  0  0  0  0  0  0  0  0  0  0
   46.4990   48.2750   15.5450 C   0  0  0  0  0  0  0  0  0  0  0  0
   47.1160   48.4320   17.2080 S   0  0  0  0  0  0  0  0  0  0  0  0
   50.0020   49.3100   14.7520 C   0  0  0  0  0  0  0  0  0  0  0  0
   50.9610   48.3890   14.5360 N   0  0  0  0  0  0  0  0  0  0  0  0
   51.7680   48.6330   14.0540 H   0  0  0  0  0  0  0  0  0  0  0  0
   50.8470   47.4820   14.8620 H   0  0  0  0  0  0  0  0  0  0  0  0
   50.1450   50.4470   14.3430 O   0  0  0  0  0  0  0  0  0  0  0  0
   50.5890   51.8380   20.1130 O   0  0  0  0  0  0  0  0  0  0  0  0
   51.3810   52.9280   20.1220 C   0  0  0  0  0  0  0  0  0  0  0  0
   52.5340   52.8440   19.7480 O   0  0  0  0  0  0  0  0  0  0  0  0
   50.8480   54.2250   20.5870 C   0  0  0  0  0  0  0  0  0  0  0  0
   51.5390   54.9630   21.5510 C   0  0  0  0  0  0  0  0  0  0  0  0
   51.0350   56.1710   21.9800 C   0  0  0  0  0  0  0  0  0  0  0  0
   49.8450   56.6590   21.4600 C   0  0  0  0  0  0  0  0  0  0  0  0
   49.1550   55.9320   20.5050 C   0  0  0  0  0  0  0  0  0  0  0  0
   47.8980   56.6760   20.1060 C   0  0  0  0  0  0  0  0  0  0  0  0
   48.1160   58.1260   20.5870 C   0  0  0  0  0  0  0  0  0  0  0  0
   49.0970   57.9400   21.7650 C   0  0  0  0  0  0  0  0  0  0  0  0
   49.6510   54.7190   20.0680 C   0  0  0  0  0  0  0  0  0  0  0  0
  2  3  1  1  0  0  0
  2  1  1  0  0  0  0
  2 17  1  0  0  0  0
  4  5  1  0  0  0  0
  4  3  1  0  0  0  0
  6  3  2  0  0  0  0
  7 11  1  0  0  0  0
  7  4  1  0  0  0  0
  8  7  2  0  0  0  0
  9  8  1  0  0  0  0
  9 10  2  0  0  0  0
 10 11  1  0  0  0  0
 12  8  1  0  0  0  0
 13 12  1  0  0  0  0
 13 15  1  0  0  0  0
 14 13  1  0  0  0  0
 16 12  2  0  0  0  0
 17 18  1  0  0  0  0
 18 20  1  0  0  0  0
 19 18  2  0  0  0  0
 20 21  2  0  0  0  0
 21 22  1  0  0  0  0
 23 27  1  0  0  0  0
 23 22  2  0  0  0  0
 24 23  1  0  0  0  0
 25 24  1  0  0  0  0
 25 26  1  0  0  0  0
 26 27  1  0  0  0  0
 28 24  2  0  0  0  0
 28 20  1  0  0  0  0
M  END
>  <MODEL>
3

>  <REMARK>
  Name = ZINC09497807
                            x       y       z     vdW  Elec       q    Type
                         _______ _______ _______ _____ _____    ______ ____

>  <TORSDO>
F 6

>  <minimizedAffinity>
-8.9103226225034966

$$$$
ZINC09497807
 OpenBabel10211216013D

 28 30  0  0  1  0  0  0  0  0999 V2000
   49.7830   49.4120   19.0790 C   0  0  0  0  0  0  0  0  0  0  0  0
   49.4860   50.5400   18.0880 C   0  0  1  0  0  0  0  0  0  0  0  0
   48.2850   50.1740   17.2550 C   0  0  0  0  0  0  0  0  0  0  0  0
   48.0090   48.8790   17.0020 N   0  0  0  0  0  0  0  0  0  0  0  0
   48.5840   48.1830   17.3560 H   0  0  0  0  0  0  0  0  0  0  0  0
   47.5670   51.0450   16.8110 O   0  0  0  0  0  0  0  0  0  0  0  0
   46.9040   48.5420   16.2350 C   0  0  0  0  0  0  0  0  0  0  0  0
   45.6490   48.1280   16.6650 C   0  0  0  0  0  0  0  0  0  0  0  0
   44.6730   47.8440   15.6400 C   0  0  0  0  0  0  0  0  0  0  0  0
   45.0640   47.9920   14.3620 C   0  0  0  0  0  0  0  0  0  0  0  0
   46.7550   48.5280   14.5100 S   0  0  0  0  0  0  0  0  0  0  0  0
   45.3310   47.9910   18.0900 C   0  0  0  0  0  0  0  0  0  0  0  0
   44.0520   47.8270   18.4810 N   0  0  0  0  0  0  0  0  0  0  0  0
   43.8410   47.7360   19.4240 H   0  0  0  0  0  0  0  0  0  0  0  0
   43.3410   47.7990   17.8210 H   0  0  0  0  0  0  0  0  0  0  0  0
   46.2210   48.0260   18.9180 O   0  0  0  0  0  0  0  0  0  0  0  0
   49.2150   51.7650   18.8170 O   0  0  0  0  0  0  0  0  0  0  0  0
   50.1630   52.7210   18.7840 C   0  0  0  0  0  0  0  0  0  0  0  0
   51.1660   52.5580   18.1170 O   0  0  0  0  0  0  0  0  0  0  0  0
   49.9860   53.9660   19.5580 C   0  0  0  0  0  0  0  0  0  0  0  0
   50.9690   54.3790   20.4590 C   0  0  0  0  0  0  0  0  0  0  0  0
   50.7950   55.5420   21.1780 C   0  0  0  0  0  0  0  0  0  0  0  0
   49.6480   56.3040   21.0120 C   0  0  0  0  0  0  0  0  0  0  0  0
   48.6690   55.8990   20.1220 C   0  0  0  0  0  0  0  0  0  0  0  0
   47.5290   56.8960   20.1280 C   0  0  0  0  0  0  0  0  0  0  0  0
   48.1080   58.1680   20.7820 C   0  0  0  0  0  0  0  0  0  0  0  0
   49.2310   57.5990   21.6760 C   0  0  0  0  0  0  0  0  0  0  0  0
   48.8330   54.7350   19.3960 C   0  0  0  0  0  0  0  0  0  0  0  0
  2  3  1  1  0  0  0
  2 17  1  0  0  0  0
  2  1  1  0  0  0  0
  4  3  1  0  0  0  0
  4  5  1  0  0  0  0
  6  3  2  0  0  0  0
  7  8  2  0  0  0  0
  7  4  1  0  0  0  0
  8 12  1  0  0  0  0
  9  8  1  0  0  0  0
 10 11  1  0  0  0  0
 10  9  2  0  0  0  0
 11  7  1  0  0  0  0
 12 13  1  0  0  0  0
 12 16  2  0  0  0  0
 13 14  1  0  0  0  0
 15 13  1  0  0  0  0
 18 17  1  0  0  0  0
 18 20  1  0  0  0  0
 19 18  2  0  0  0  0
 20 21  1  0  0  0  0
 21 22  2  0  0  0  0
 23 22  1  0  0  0  0
 23 27  1  0  0  0  0
 24 25  1  0  0  0  0
 24 23  2  0  0  0  0
 25 26  1  0  0  0  0
 26 27  1  0  0  0  0
 28 20  2  0  0  0  0
 28 24  1  0  0  0  0
M  END
>  <MODEL>
4

>  <REMARK>
  Name = ZINC09497807
                            x       y       z     vdW  Elec       q    Type
                         _______ _______ _______ _____ _____    ______ ____

>  <TORSDO>
F 6

>  <minimizedAffinity>
-8.5578250799928473

$$$$
ZINC09497807
 OpenBabel10211216013D

 28 30  0  0  1  0  0  0  0  0999 V2000
   52.8290   51.1400   20.3450 C   0  0  0  0  0  0  0  0  0  0  0  0
   51.3280   51.1480   20.6430 C   0  0  1  0  0  0  0  0  0  0  0  0
   50.9260   52.5040   21.1630 C   0  0  0  0  0  0  0  0  0  0  0  0
   51.2620   53.6150   20.4770 N   0  0  0  0  0  0  0  0  0  0  0  0
   51.7610   53.5420   19.6500 H   0  0  0  0  0  0  0  0  0  0  0  0
   50.3010   52.5960   22.1980 O   0  0  0  0  0  0  0  0  0  0  0  0
   50.8910   54.8630   20.9560 C   0  0  0  0  0  0  0  0  0  0  0  0
   49.8790   55.6970   20.4970 C   0  0  0  0  0  0  0  0  0  0  0  0
   49.7080   56.9520   21.1900 C   0  0  0  0  0  0  0  0  0  0  0  0
   50.5480   57.2110   22.2080 C   0  0  0  0  0  0  0  0  0  0  0  0
   51.5830   55.7630   22.2630 S   0  0  0  0  0  0  0  0  0  0  0  0
   49.0220   55.3190   19.3680 C   0  0  0  0  0  0  0  0  0  0  0  0
   48.5320   56.2690   18.5480 N   0  0  0  0  0  0  0  0  0  0  0  0
   47.9650   56.0180   17.8010 H   0  0  0  0  0  0  0  0  0  0  0  0
   48.7440   57.2030   18.7040 H   0  0  0  0  0  0  0  0  0  0  0  0
   48.7560   54.1490   19.1730 O   0  0  0  0  0  0  0  0  0  0  0  0
   50.5920   50.8580   19.4270 O   0  0  0  0  0  0  0  0  0  0  0  0
   50.0260   49.6390   19.3300 C   0  0  0  0  0  0  0  0  0  0  0  0
   50.6140   48.6610   19.7470 O   0  0  0  0  0  0  0  0  0  0  0  0
   48.6910   49.4910   18.7140 C   0  0  0  0  0  0  0  0  0  0  0  0
   48.3070   50.3230   17.6610 C   0  0  0  0  0  0  0  0  0  0  0  0
   47.0600   50.1780   17.0920 C   0  0  0  0  0  0  0  0  0  0  0  0
   46.1840   49.2100   17.5610 C   0  0  0  0  0  0  0  0  0  0  0  0
   46.5590   48.3820   18.6050 C   0  0  0  0  0  0  0  0  0  0  0  0
   45.4330   47.4220   18.9240 C   0  0  0  0  0  0  0  0  0  0  0  0
   44.5100   47.4550   17.6870 C   0  0  0  0  0  0  0  0  0  0  0  0
   44.7820   48.8600   17.1090 C   0  0  0  0  0  0  0  0  0  0  0  0
   47.8060   48.5190   19.1820 C   0  0  0  0  0  0  0  0  0  0  0  0
  1  2  1  0  0  0  0
  2 17  1  6  0  0  0
  2  3  1  0  0  0  0
  3  6  2  0  0  0  0
  4  7  1  0  0  0  0
  4  3  1  0  0  0  0
  5  4  1  0  0  0  0
  7 11  1  0  0  0  0
  8  7  2  0  0  0  0
  8  9  1  0  0  0  0
  9 10  2  0  0  0  0
 10 11  1  0  0  0  0
 12  8  1  0  0  0  0
 13 15  1  0  0  0  0
 13 12  1  0  0  0  0
 14 13  1  0  0  0  0
 16 12  2  0  0  0  0
 18 17  1  0  0  0  0
 18 19  2  0  0  0  0
 20 28  1  0  0  0  0
 20 18  1  0  0  0  0
 21 20  2  0  0  0  0
 22 23  2  0  0  0  0
 22 21  1  0  0  0  0
 23 24  1  0  0  0  0
 24 25  1  0  0  0  0
 24 28  2  0  0  0  0
 26 25  1  0  0  0  0
 27 23  1  0  0  0  0
 27 26  1  0  0  0  0
M  END
>  <MODEL>
5

>  <REMARK>
  Name = ZINC09497807
                            x       y       z     vdW  Elec       q    Type
                         _______ _______ _______ _____ _____    ______ ____

>  <TORSDO>
F 6

>  <minimizedAffinity>
-8.5283373839558401

$$$$
ZINC09497807
 OpenBabel10211216013D

 28 30  0  0  1  0  0  0  0  0999 V2000
   51.3160   53.2330   21.9530 C   0  0  0  0  0  0  0  0  0  0  0  0
   52.1490   53.6270   20.7320 C   0  0  1  0  0  0  0  0  0  0  0  0
   51.3840   53.3010   19.4750 C   0  0  0  0  0  0  0  0  0  0  0  0
   50.1460   52.7740   19.5570 N   0  0  0  0  0  0  0  0  0  0  0  0
   49.7480   52.6050   20.4250 H   0  0  0  0  0  0  0  0  0  0  0  0
   51.8830   53.5130   18.3900 O   0  0  0  0  0  0  0  0  0  0  0  0
   49.4420   52.4750   18.4010 C   0  0  0  0  0  0  0  0  0  0  0  0
   49.3130   51.2470   17.7630 C   0  0  0  0  0  0  0  0  0  0  0  0
   48.5090   51.2200   16.5640 C   0  0  0  0  0  0  0  0  0  0  0  0
   47.9670   52.3830   16.1620 C   0  0  0  0  0  0  0  0  0  0  0  0
   48.5190   53.5410   17.3960 S   0  0  0  0  0  0  0  0  0  0  0  0
   49.9570   50.0370   18.2850 C   0  0  0  0  0  0  0  0  0  0  0  0
   49.4010   48.8300   18.0630 N   0  0  0  0  0  0  0  0  0  0  0  0
   49.8270   48.0290   18.4090 H   0  0  0  0  0  0  0  0  0  0  0  0
   48.5750   48.7600   17.5590 H   0  0  0  0  0  0  0  0  0  0  0  0
   50.9920   50.1240   18.9170 O   0  0  0  0  0  0  0  0  0  0  0  0
   52.4270   55.0510   20.7740 O   0  0  0  0  0  0  0  0  0  0  0  0
   51.7620   55.7770   21.6950 C   0  0  0  0  0  0  0  0  0  0  0  0
   52.1260   55.7670   22.8540 O   0  0  0  0  0  0  0  0  0  0  0  0
   50.5920   56.5840   21.2950 C   0  0  0  0  0  0  0  0  0  0  0  0
   50.0090   57.4730   22.2000 C   0  0  0  0  0  0  0  0  0  0  0  0
   48.9170   58.2220   21.8190 C   0  0  0  0  0  0  0  0  0  0  0  0
   48.3920   58.0970   20.5410 C   0  0  0  0  0  0  0  0  0  0  0  0
   48.9640   57.2160   19.6390 C   0  0  0  0  0  0  0  0  0  0  0  0
   48.2110   57.2670   18.3270 C   0  0  0  0  0  0  0  0  0  0  0  0
   47.4000   58.5790   18.3770 C   0  0  0  0  0  0  0  0  0  0  0  0
   47.2160   58.7980   19.8940 C   0  0  0  0  0  0  0  0  0  0  0  0
   50.0600   56.4610   20.0110 C   0  0  0  0  0  0  0  0  0  0  0  0
  2  3  1  6  0  0  0
  2 17  1  0  0  0  0
  2  1  1  0  0  0  0
  3  4  1  0  0  0  0
  4  5  1  0  0  0  0
  6  3  2  0  0  0  0
  7  4  1  0  0  0  0
  8 12  1  0  0  0  0
  8  7  2  0  0  0  0
  9  8  1  0  0  0  0
 10  9  2  0  0  0  0
 10 11  1  0  0  0  0
 11  7  1  0  0  0  0
 12 16  2  0  0  0  0
 13 12  1  0  0  0  0
 13 14  1  0  0  0  0
 15 13  1  0  0  0  0
 17 18  1  0  0  0  0
 18 19  2  0  0  0  0
 20 18  1  0  0  0  0
 20 21  2  0  0  0  0
 22 21  1  0  0  0  0
 23 22  2  0  0  0  0
 24 28  2  0  0  0  0
 24 23  1  0  0  0  0
 25 26  1  0  0  0  0
 25 24  1  0  0  0  0
 26 27  1  0  0  0  0
 27 23  1  0  0  0  0
 28 20  1  0  0  0  0
M  END
>  <MODEL>
6

>  <REMARK>
  Name = ZINC09497807
                            x       y       z     vdW  Elec       q    Type
                         _______ _______ _______ _____ _____    ______ ____

>  <TORSDO>
F 6

>  <minimizedAffinity>
-8.5056883071523313

$$$$
ZINC09497807
 OpenBabel10211216013D

 28 30  0  0  1  0  0  0  0  0999 V2000
   50.4580   49.7060   19.4060 C   0  0  0  0  0  0  0  0  0  0  0  0
   49.7830   50.8600   18.6610 C   0  0  1  0  0  0  0  0  0  0  0  0
   50.5450   52.1340   18.9120 C   0  0  0  0  0  0  0  0  0  0  0  0
   50.0040   53.1040   19.6760 N   0  0  0  0  0  0  0  0  0  0  0  0
   49.1240   52.9820   20.0630 H   0  0  0  0  0  0  0  0  0  0  0  0
   51.6460   52.2880   18.4270 O   0  0  0  0  0  0  0  0  0  0  0  0
   50.7060   54.2780   19.9070 C   0  0  0  0  0  0  0  0  0  0  0  0
   51.4670   54.6230   21.0180 C   0  0  0  0  0  0  0  0  0  0  0  0
   52.0990   55.9200   20.9930 C   0  0  0  0  0  0  0  0  0  0  0  0
   51.8900   56.6850   19.9070 C   0  0  0  0  0  0  0  0  0  0  0  0
   50.8410   55.6700   18.8870 S   0  0  0  0  0  0  0  0  0  0  0  0
   51.6230   53.7130   22.1570 C   0  0  0  0  0  0  0  0  0  0  0  0
   51.5860   54.1950   23.4140 N   0  0  0  0  0  0  0  0  0  0  0  0
   51.6900   53.5920   24.1680 H   0  0  0  0  0  0  0  0  0  0  0  0
   51.4570   55.1440   23.5670 H   0  0  0  0  0  0  0  0  0  0  0  0
   51.7860   52.5220   21.9650 O   0  0  0  0  0  0  0  0  0  0  0  0
   49.7710   50.5750   17.2370 O   0  0  0  0  0  0  0  0  0  0  0  0
   48.6940   50.9850   16.5390 C   0  0  0  0  0  0  0  0  0  0  0  0
   48.6830   52.0890   16.0330 O   0  0  0  0  0  0  0  0  0  0  0  0
   47.5270   50.0920   16.3910 C   0  0  0  0  0  0  0  0  0  0  0  0
   46.5560   50.0330   17.3930 C   0  0  0  0  0  0  0  0  0  0  0  0
   45.4710   49.1970   17.2470 C   0  0  0  0  0  0  0  0  0  0  0  0
   45.3360   48.4140   16.1100 C   0  0  0  0  0  0  0  0  0  0  0  0
   46.2950   48.4680   15.1130 C   0  0  0  0  0  0  0  0  0  0  0  0
   45.9170   47.5260   13.9900 C   0  0  0  0  0  0  0  0  0  0  0  0
   44.4190   47.2230   14.2020 C   0  0  0  0  0  0  0  0  0  0  0  0
   44.2500   47.4320   15.7220 C   0  0  0  0  0  0  0  0  0  0  0  0
   47.3870   49.3020   15.2500 C   0  0  0  0  0  0  0  0  0  0  0  0
  2 17  1  6  0  0  0
  2  3  1  0  0  0  0
  2  1  1  0  0  0  0
  3  4  1  0  0  0  0
  4  7  1  0  0  0  0
  4  5  1  0  0  0  0
  6  3  2  0  0  0  0
  7  8  2  0  0  0  0
  8 12  1  0  0  0  0
  9  8  1  0  0  0  0
 10  9  2  0  0  0  0
 11 10  1  0  0  0  0
 11  7  1  0  0  0  0
 12 13  1  0  0  0  0
 13 15  1  0  0  0  0
 13 14  1  0  0  0  0
 16 12  2  0  0  0  0
 18 17  1  0  0  0  0
 19 18  2  0  0  0  0
 20 18  1  0  0  0  0
 20 21  2  0  0  0  0
 22 21  1  0  0  0  0
 23 22  2  0  0  0  0
 24 28  2  0  0  0  0
 24 23  1  0  0  0  0
 25 26  1  0  0  0  0
 25 24  1  0  0  0  0
 26 27  1  0  0  0  0
 27 23  1  0  0  0  0
 28 20  1  0  0  0  0
M  END
>  <MODEL>
7

>  <REMARK>
  Name = ZINC09497807
                            x       y       z     vdW  Elec       q    Type
                         _______ _______ _______ _____ _____    ______ ____

>  <TORSDO>
F 6

>  <minimizedAffinity>
-8.1255785620672807

$$$$
ZINC09497807
 OpenBabel10211216013D

 28 30  0  0  1  0  0  0  0  0999 V2000
   50.9120   53.7150   20.9220 C   0  0  0  0  0  0  0  0  0  0  0  0
   49.9890   53.9420   19.7230 C   0  0  1  0  0  0  0  0  0  0  0  0
   49.6130   55.3990   19.6470 C   0  0  0  0  0  0  0  0  0  0  0  0
   48.3450   55.7540   19.3610 N   0  0  0  0  0  0  0  0  0  0  0  0
   47.6740   55.0720   19.2030 H   0  0  0  0  0  0  0  0  0  0  0  0
   50.4520   56.2520   19.8440 O   0  0  0  0  0  0  0  0  0  0  0  0
   47.9990   57.0950   19.2920 C   0  0  0  0  0  0  0  0  0  0  0  0
   47.7110   57.8550   18.1640 C   0  0  0  0  0  0  0  0  0  0  0  0
   47.3750   59.2410   18.3850 C   0  0  0  0  0  0  0  0  0  0  0  0
   47.3800   59.6800   19.6560 C   0  0  0  0  0  0  0  0  0  0  0  0
   47.8300   58.2310   20.5870 S   0  0  0  0  0  0  0  0  0  0  0  0
   47.7430   57.2760   16.8170 C   0  0  0  0  0  0  0  0  0  0  0  0
   46.9260   57.7550   15.8590 N   0  0  0  0  0  0  0  0  0  0  0  0
   46.9470   57.3720   14.9680 H   0  0  0  0  0  0  0  0  0  0  0  0
   46.3160   58.4830   16.0600 H   0  0  0  0  0  0  0  0  0  0  0  0
   48.5070   56.3630   16.5660 O   0  0  0  0  0  0  0  0  0  0  0  0
   50.6770   53.5550   18.5040 O   0  0  0  0  0  0  0  0  0  0  0  0
   51.0520   52.2660   18.3950 C   0  0  0  0  0  0  0  0  0  0  0  0
   52.2260   51.9860   18.2520 O   0  0  0  0  0  0  0  0  0  0  0  0
   50.0380   51.1940   18.4500 C   0  0  0  0  0  0  0  0  0  0  0  0
   50.2220   50.0950   19.2910 C   0  0  0  0  0  0  0  0  0  0  0  0
   49.2710   49.0990   19.3350 C   0  0  0  0  0  0  0  0  0  0  0  0
   48.1320   49.1810   18.5480 C   0  0  0  0  0  0  0  0  0  0  0  0
   47.9440   50.2670   17.7110 C   0  0  0  0  0  0  0  0  0  0  0  0
   46.6350   50.1170   16.9650 C   0  0  0  0  0  0  0  0  0  0  0  0
   45.8400   49.0550   17.7540 C   0  0  0  0  0  0  0  0  0  0  0  0
   46.9610   48.2300   18.4210 C   0  0  0  0  0  0  0  0  0  0  0  0
   48.8910   51.2720   17.6590 C   0  0  0  0  0  0  0  0  0  0  0  0
  2 17  1  6  0  0  0
  2  1  1  0  0  0  0
  3  2  1  0  0  0  0
  3  6  2  0  0  0  0
  4  3  1  0  0  0  0
  5  4  1  0  0  0  0
  7  4  1  0  0  0  0
  7 11  1  0  0  0  0
  8  9  1  0  0  0  0
  8  7  2  0  0  0  0
  9 10  2  0  0  0  0
 10 11  1  0  0  0  0
 12  8  1  0  0  0  0
 13 15  1  0  0  0  0
 13 12  1  0  0  0  0
 14 13  1  0  0  0  0
 16 12  2  0  0  0  0
 18 20  1  0  0  0  0
 18 17  1  0  0  0  0
 19 18  2  0  0  0  0
 20 21  2  0  0  0  0
 21 22  1  0  0  0  0
 23 22  2  0  0  0  0
 24 23  1  0  0  0  0
 25 24  1  0  0  0  0
 25 26  1  0  0  0  0
 26 27  1  0  0  0  0
 27 23  1  0  0  0  0
 28 24  2  0  0  0  0
 28 20  1  0  0  0  0
M  END
>  <MODEL>
8

>  <REMARK>
  Name = ZINC09497807
                            x       y       z     vdW  Elec       q    Type
                         _______ _______ _______ _____ _____    ______ ____

>  <TORSDO>
F 6

>  <minimizedAffinity>
-8.0693935205051943

$$$$
ZINC09497807
 OpenBabel10211216013D

 28 30  0  0  1  0  0  0  0  0999 V2000
   49.0020   57.9780   21.8410 C   0  0  0  0  0  0  0  0  0  0  0  0
   49.5030   56.8000   21.0030 C   0  0  1  0  0  0  0  0  0  0  0  0
   48.6890   56.7010   19.7390 C   0  0  0  0  0  0  0  0  0  0  0  0
   49.2660   56.2810   18.5960 N   0  0  0  0  0  0  0  0  0  0  0  0
   50.2050   56.0420   18.5860 H   0  0  0  0  0  0  0  0  0  0  0  0
   47.5130   56.9990   19.7510 O   0  0  0  0  0  0  0  0  0  0  0  0
   48.5150   56.1900   17.4330 C   0  0  0  0  0  0  0  0  0  0  0  0
   48.0800   55.0460   16.7740 C   0  0  0  0  0  0  0  0  0  0  0  0
   47.3030   55.2450   15.5740 C   0  0  0  0  0  0  0  0  0  0  0  0
   47.0790   56.5140   15.1910 C   0  0  0  0  0  0  0  0  0  0  0  0
   47.9020   57.4730   16.4450 S   0  0  0  0  0  0  0  0  0  0  0  0
   48.3900   53.7040   17.2770 C   0  0  0  0  0  0  0  0  0  0  0  0
   47.5250   52.6910   17.0690 N   0  0  0  0  0  0  0  0  0  0  0  0
   47.7300   51.8030   17.4020 H   0  0  0  0  0  0  0  0  0  0  0  0
   46.6980   52.8500   16.5880 H   0  0  0  0  0  0  0  0  0  0  0  0
   49.4270   53.5050   17.8800 O   0  0  0  0  0  0  0  0  0  0  0  0
   50.9000   57.0060   20.6640 O   0  0  0  0  0  0  0  0  0  0  0  0
   51.8060   56.2580   21.3210 C   0  0  0  0  0  0  0  0  0  0  0  0
   52.5730   56.7820   22.1050 O   0  0  0  0  0  0  0  0  0  0  0  0
   51.8700   54.8000   21.0890 C   0  0  0  0  0  0  0  0  0  0  0  0
   51.5750   53.9100   22.1240 C   0  0  0  0  0  0  0  0  0  0  0  0
   51.6370   52.5530   21.8990 C   0  0  0  0  0  0  0  0  0  0  0  0
   51.9910   52.0640   20.6500 C   0  0  0  0  0  0  0  0  0  0  0  0
   52.2850   52.9410   19.6200 C   0  0  0  0  0  0  0  0  0  0  0  0
   52.6400   52.1610   18.3710 C   0  0  0  0  0  0  0  0  0  0  0  0
   52.1080   50.7350   18.6200 C   0  0  0  0  0  0  0  0  0  0  0  0
   52.1280   50.6380   20.1610 C   0  0  0  0  0  0  0  0  0  0  0  0
   52.2260   54.3040   19.8350 C   0  0  0  0  0  0  0  0  0  0  0  0
  2  3  1  6  0  0  0
  2  1  1  0  0  0  0
  3  6  2  0  0  0  0
  4  3  1  0  0  0  0
  5  4  1  0  0  0  0
  7  4  1  0  0  0  0
  8 12  1  0  0  0  0
  8  7  2  0  0  0  0
  9  8  1  0  0  0  0
 10  9  2  0  0  0  0
 10 11  1  0  0  0  0
 11  7  1  0  0  0  0
 12 16  2  0  0  0  0
 13 12  1  0  0  0  0
 13 14  1  0  0  0  0
 15 13  1  0  0  0  0
 17  2  1  0  0  0  0
 17 18  1  0  0  0  0
 18 19  2  0  0  0  0
 20 18  1  0  0  0  0
 20 21  2  0  0  0  0
 22 21  1  0  0  0  0
 23 22  2  0  0  0  0
 24 28  2  0  0  0  0
 24 23  1  0  0  0  0
 25 26  1  0  0  0  0
 25 24  1  0  0  0  0
 26 27  1  0  0  0  0
 27 23  1  0  0  0  0
 28 20  1  0  0  0  0
M  END
>  <MODEL>
9

>  <REMARK>
  Name = ZINC09497807
                            x       y       z     vdW  Elec       q    Type
                         _______ _______ _______ _____ _____    ______ ____

>  <TORSDO>
F 6

>  <minimizedAffinity>
-7.9763956424044062

$$$$
ZINC65607663
 OpenBabel10211216033D

 26 27  0  0  1  0  0  0  0  0999 V2000
   51.0570   53.1750   18.2930 N   0  0  0  0  0  0  0  0  0  0  0  0
   51.5980   53.5300   17.5690 H   0  0  0  0  0  0  0  0  0  0  0  0
   50.4270   54.0160   19.1370 C   0  0  0  0  0  0  0  0  0  0  0  0
   50.5470   55.3490   18.9740 N   0  0  0  0  0  0  0  0  0  0  0  0
   51.1510   55.7040   18.3030 H   0  0  0  0  0  0  0  0  0  0  0  0
   49.7490   53.5730   20.0440 O   0  0  0  0  0  0  0  0  0  0  0  0
   49.7990   56.2230   19.7760 C   0  0  0  0  0  0  0  0  0  0  0  0
   48.4530   56.4290   19.5130 C   0  0  0  0  0  0  0  0  0  0  0  0
   47.7170   57.2910   20.3030 C   0  0  0  0  0  0  0  0  0  0  0  0
   48.3190   57.9510   21.3590 C   0  0  0  0  0  0  0  0  0  0  0  0
   49.6590   57.7520   21.6310 C   0  0  0  0  0  0  0  0  0  0  0  0
   50.4050   56.8830   20.8450 C   0  0  0  0  0  0  0  0  0  0  0  0
   52.1120   56.6230   21.1920 S   0  0  0  0  0  0  0  0  0  0  0  0
   52.7450   58.2830   21.5560 C   0  0  0  0  0  0  0  0  0  0  0  0
   52.2770   51.0570   18.2050 C   0  0  0  0  0  0  0  0  0  0  0  0
   50.9270   51.7280   18.4690 C   0  0  2  0  0  0  0  0  0  0  0  0
   49.9040   51.1930   17.5000 C   0  0  0  0  0  0  0  0  0  0  0  0
   48.5910   51.4010   17.7230 N   0  0  0  0  0  0  0  0  0  0  0  0
   48.3050   51.8970   18.5060 H   0  0  0  0  0  0  0  0  0  0  0  0
   50.2620   50.5750   16.5200 O   0  0  0  0  0  0  0  0  0  0  0  0
   47.5970   50.8820   16.7810 C   0  0  0  0  0  0  0  0  0  0  0  0
   46.8220   49.7650   17.4320 C   0  0  0  0  0  0  0  0  0  0  0  0
   47.2890   48.9310   18.3790 C   0  0  0  0  0  0  0  0  0  0  0  0
   46.2360   48.0450   18.7010 C   0  0  0  0  0  0  0  0  0  0  0  0
   45.1880   48.3900   17.9310 C   0  0  0  0  0  0  0  0  0  0  0  0
   45.5470   49.4360   17.1690 O   0  0  0  0  0  0  0  0  0  0  0  0
  1 16  1  0  0  0  0
  1  3  1  0  0  0  0
  2  1  1  0  0  0  0
  3  6  2  0  0  0  0
  4  3  1  0  0  0  0
  4  7  1  0  0  0  0
  5  4  1  0  0  0  0
  7 12  1  0  0  0  0
  8  7  2  0  0  0  0
  8  9  1  0  0  0  0
  9 10  2  0  0  0  0
 10 11  1  0  0  0  0
 12 13  1  0  0  0  0
 12 11  2  0  0  0  0
 13 14  1  0  0  0  0
 15 16  1  0  0  0  0
 16 17  1  6  0  0  0
 17 18  1  0  0  0  0
 18 19  1  0  0  0  0
 20 17  2  0  0  0  0
 21 22  1  0  0  0  0
 21 18  1  0  0  0  0
 22 23  2  0  0  0  0
 23 24  1  0  0  0  0
 25 24  2  0  0  0  0
 26 22  1  0  0  0  0
 26 25  1  0  0  0  0
M  END
>  <MODEL>
1

>  <REMARK>
  Name = ZINC65607663
                            x       y       z     vdW  Elec       q    Type
                         _______ _______ _______ _____ _____    ______ ____

>  <TORSDO>
F 6

>  <minimizedAffinity>
-8.1543774888778735

$$$$
ZINC65607663
 OpenBabel10211216033D

 26 27  0  0  1  0  0  0  0  0999 V2000
   51.0450   53.2100   18.3090 N   0  0  0  0  0  0  0  0  0  0  0  0
   51.7010   53.5620   17.6870 H   0  0  0  0  0  0  0  0  0  0  0  0
   50.3810   54.0460   19.1310 C   0  0  0  0  0  0  0  0  0  0  0  0
   50.6270   55.3710   19.0880 N   0  0  0  0  0  0  0  0  0  0  0  0
   51.3390   55.7140   18.5250 H   0  0  0  0  0  0  0  0  0  0  0  0
   49.5580   53.6070   19.9110 O   0  0  0  0  0  0  0  0  0  0  0  0
   49.8550   56.2530   19.8560 C   0  0  0  0  0  0  0  0  0  0  0  0
   48.5520   56.5450   19.4820 C   0  0  0  0  0  0  0  0  0  0  0  0
   47.7920   57.4150   20.2400 C   0  0  0  0  0  0  0  0  0  0  0  0
   48.3270   57.9980   21.3740 C   0  0  0  0  0  0  0  0  0  0  0  0
   49.6240   57.7140   21.7560 C   0  0  0  0  0  0  0  0  0  0  0  0
   50.3930   56.8360   21.0040 C   0  0  0  0  0  0  0  0  0  0  0  0
   52.0450   56.4670   21.4910 S   0  0  0  0  0  0  0  0  0  0  0  0
   52.8340   58.0940   21.6380 C   0  0  0  0  0  0  0  0  0  0  0  0
   52.0970   51.0100   18.4970 C   0  0  0  0  0  0  0  0  0  0  0  0
   50.7770   51.7710   18.3560 C   0  0  2  0  0  0  0  0  0  0  0  0
   50.0860   51.3470   17.0860 C   0  0  0  0  0  0  0  0  0  0  0  0
   50.5920   50.3390   16.3470 N   0  0  0  0  0  0  0  0  0  0  0  0
   51.4010   49.8860   16.6340 H   0  0  0  0  0  0  0  0  0  0  0  0
   49.0750   51.9130   16.7280 O   0  0  0  0  0  0  0  0  0  0  0  0
   49.9200   49.9270   15.1130 C   0  0  0  0  0  0  0  0  0  0  0  0
   48.8270   48.9420   15.4400 C   0  0  0  0  0  0  0  0  0  0  0  0
   47.5940   48.9280   14.9030 C   0  0  0  0  0  0  0  0  0  0  0  0
   46.9030   47.8450   15.4920 C   0  0  0  0  0  0  0  0  0  0  0  0
   47.7550   47.2610   16.3540 C   0  0  0  0  0  0  0  0  0  0  0  0
   48.9200   47.9270   16.3140 O   0  0  0  0  0  0  0  0  0  0  0  0
  1 16  1  0  0  0  0
  1  3  1  0  0  0  0
  2  1  1  0  0  0  0
  3  6  2  0  0  0  0
  4  3  1  0  0  0  0
  4  7  1  0  0  0  0
  5  4  1  0  0  0  0
  7 12  1  0  0  0  0
  8  7  2  0  0  0  0
  8  9  1  0  0  0  0
  9 10  2  0  0  0  0
 10 11  1  0  0  0  0
 12 13  1  0  0  0  0
 12 11  2  0  0  0  0
 13 14  1  0  0  0  0
 16 17  1  6  0  0  0
 16 15  1  0  0  0  0
 18 19  1  0  0  0  0
 18 17  1  0  0  0  0
 20 17  2  0  0  0  0
 21 22  1  0  0  0  0
 21 18  1  0  0  0  0
 22 26  1  0  0  0  0
 23 22  2  0  0  0  0
 23 24  1  0  0  0  0
 24 25  2  0  0  0  0
 26 25  1  0  0  0  0
M  END
>  <MODEL>
2

>  <REMARK>
  Name = ZINC65607663
                            x       y       z     vdW  Elec       q    Type
                         _______ _______ _______ _____ _____    ______ ____

>  <TORSDO>
F 6

>  <minimizedAffinity>
-7.791716009212128

$$$$
ZINC65607663
 OpenBabel10211216033D

 26 27  0  0  1  0  0  0  0  0999 V2000
   51.1670   53.1370   18.3000 N   0  0  0  0  0  0  0  0  0  0  0  0
   51.7740   53.4800   17.6250 H   0  0  0  0  0  0  0  0  0  0  0  0
   50.4720   53.9900   19.0780 C   0  0  0  0  0  0  0  0  0  0  0  0
   50.6190   55.3200   18.9160 N   0  0  0  0  0  0  0  0  0  0  0  0
   51.2840   55.6640   18.2990 H   0  0  0  0  0  0  0  0  0  0  0  0
   49.7110   53.5610   19.9230 O   0  0  0  0  0  0  0  0  0  0  0  0
   49.8100   56.2080   19.6410 C   0  0  0  0  0  0  0  0  0  0  0  0
   50.1410   56.5430   20.9450 C   0  0  0  0  0  0  0  0  0  0  0  0
   49.3430   57.4180   21.6580 C   0  0  0  0  0  0  0  0  0  0  0  0
   48.2120   57.9600   21.0750 C   0  0  0  0  0  0  0  0  0  0  0  0
   47.8740   57.6330   19.7760 C   0  0  0  0  0  0  0  0  0  0  0  0
   48.6730   56.7600   19.0500 C   0  0  0  0  0  0  0  0  0  0  0  0
   48.2490   56.3440   17.3910 S   0  0  0  0  0  0  0  0  0  0  0  0
   47.5010   57.8620   16.7360 C   0  0  0  0  0  0  0  0  0  0  0  0
   52.3460   50.9950   18.2200 C   0  0  0  0  0  0  0  0  0  0  0  0
   51.0080   51.6920   18.4750 C   0  0  2  0  0  0  0  0  0  0  0  0
   49.9800   51.1770   17.5000 C   0  0  0  0  0  0  0  0  0  0  0  0
   48.6670   51.2950   17.7780 N   0  0  0  0  0  0  0  0  0  0  0  0
   48.3830   51.7130   18.6060 H   0  0  0  0  0  0  0  0  0  0  0  0
   50.3370   50.6560   16.4640 O   0  0  0  0  0  0  0  0  0  0  0  0
   47.6700   50.7950   16.8290 C   0  0  0  0  0  0  0  0  0  0  0  0
   46.8590   49.7040   17.4810 C   0  0  0  0  0  0  0  0  0  0  0  0
   47.3030   48.8450   18.4150 C   0  0  0  0  0  0  0  0  0  0  0  0
   46.2190   47.9990   18.7420 C   0  0  0  0  0  0  0  0  0  0  0  0
   45.1770   48.3910   17.9880 C   0  0  0  0  0  0  0  0  0  0  0  0
   45.5690   49.4290   17.2300 O   0  0  0  0  0  0  0  0  0  0  0  0
  1 16  1  0  0  0  0
  1  3  1  0  0  0  0
  2  1  1  0  0  0  0
  3  6  2  0  0  0  0
  4  3  1  0  0  0  0
  4  7  1  0  0  0  0
  5  4  1  0  0  0  0
  7  8  1  0  0  0  0
  8  9  2  0  0  0  0
 10  9  1  0  0  0  0
 11 10  2  0  0  0  0
 12  7  2  0  0  0  0
 12 11  1  0  0  0  0
 13 12  1  0  0  0  0
 14 13  1  0  0  0  0
 15 16  1  0  0  0  0
 16 17  1  6  0  0  0
 17 18  1  0  0  0  0
 18 19  1  0  0  0  0
 20 17  2  0  0  0  0
 21 22  1  0  0  0  0
 21 18  1  0  0  0  0
 22 23  2  0  0  0  0
 23 24  1  0  0  0  0
 25 24  2  0  0  0  0
 26 22  1  0  0  0  0
 26 25  1  0  0  0  0
M  END
>  <MODEL>
3

>  <REMARK>
  Name = ZINC65607663
                            x       y       z     vdW  Elec       q    Type
                         _______ _______ _______ _____ _____    ______ ____

>  <TORSDO>
F 6

>  <minimizedAffinity>
-7.7559650817118495

$$$$
ZINC65607663
 OpenBabel10211216033D

 26 27  0  0  1  0  0  0  0  0999 V2000
   51.0210   51.0530   18.6800 N   0  0  0  0  0  0  0  0  0  0  0  0
   51.6860   50.4520   19.0550 H   0  0  0  0  0  0  0  0  0  0  0  0
   49.8470   50.5630   18.2350 C   0  0  0  0  0  0  0  0  0  0  0  0
   49.5960   49.2410   18.3120 N   0  0  0  0  0  0  0  0  0  0  0  0
   50.2890   48.6320   18.6100 H   0  0  0  0  0  0  0  0  0  0  0  0
   49.0140   51.3140   17.7660 O   0  0  0  0  0  0  0  0  0  0  0  0
   48.3320   48.7460   17.9600 C   0  0  0  0  0  0  0  0  0  0  0  0
   47.3480   48.6020   18.9250 C   0  0  0  0  0  0  0  0  0  0  0  0
   46.1030   48.1140   18.5770 C   0  0  0  0  0  0  0  0  0  0  0  0
   45.8340   47.7670   17.2650 C   0  0  0  0  0  0  0  0  0  0  0  0
   46.8080   47.9080   16.2950 C   0  0  0  0  0  0  0  0  0  0  0  0
   48.0600   48.4030   16.6350 C   0  0  0  0  0  0  0  0  0  0  0  0
   49.3020   48.5890   15.4000 S   0  0  0  0  0  0  0  0  0  0  0  0
   48.6660   49.9110   14.3330 C   0  0  0  0  0  0  0  0  0  0  0  0
   52.7810   52.7110   18.3110 C   0  0  0  0  0  0  0  0  0  0  0  0
   51.2950   52.4890   18.5970 C   0  0  2  0  0  0  0  0  0  0  0  0
   50.9320   53.1460   19.9040 C   0  0  0  0  0  0  0  0  0  0  0  0
   51.8930   53.4370   20.8020 N   0  0  0  0  0  0  0  0  0  0  0  0
   52.8190   53.2250   20.6070 H   0  0  0  0  0  0  0  0  0  0  0  0
   49.7730   53.4120   20.1470 O   0  0  0  0  0  0  0  0  0  0  0  0
   51.5390   54.0760   22.0720 C   0  0  0  0  0  0  0  0  0  0  0  0
   51.6650   55.5720   21.9340 C   0  0  0  0  0  0  0  0  0  0  0  0
   50.6490   56.4330   21.7450 C   0  0  0  0  0  0  0  0  0  0  0  0
   51.2150   57.7260   21.6720 C   0  0  0  0  0  0  0  0  0  0  0  0
   52.5440   57.5780   21.8200 C   0  0  0  0  0  0  0  0  0  0  0  0
   52.8100   56.2720   21.9850 O   0  0  0  0  0  0  0  0  0  0  0  0
  1  2  1  0  0  0  0
  3  4  1  0  0  0  0
  3  1  1  0  0  0  0
  4  5  1  0  0  0  0
  6  3  2  0  0  0  0
  7  4  1  0  0  0  0
  7  8  2  0  0  0  0
  9  8  1  0  0  0  0
 10  9  2  0  0  0  0
 11 12  2  0  0  0  0
 11 10  1  0  0  0  0
 12  7  1  0  0  0  0
 13 12  1  0  0  0  0
 14 13  1  0  0  0  0
 16 15  1  1  0  0  0
 16  1  1  0  0  0  0
 16 17  1  0  0  0  0
 17 20  2  0  0  0  0
 17 18  1  0  0  0  0
 18 21  1  0  0  0  0
 19 18  1  0  0  0  0
 22 26  1  0  0  0  0
 22 21  1  0  0  0  0
 23 22  2  0  0  0  0
 24 23  1  0  0  0  0
 24 25  2  0  0  0  0
 25 26  1  0  0  0  0
M  END
>  <MODEL>
4

>  <REMARK>
  Name = ZINC65607663
                            x       y       z     vdW  Elec       q    Type
                         _______ _______ _______ _____ _____    ______ ____

>  <TORSDO>
F 6

>  <minimizedAffinity>
-7.5390272822089885

$$$$
ZINC65607663
 OpenBabel10211216033D

 26 27  0  0  1  0  0  0  0  0999 V2000
   50.8270   52.0860   19.5270 N   0  0  0  0  0  0  0  0  0  0  0  0
   50.9910   52.0440   18.5710 H   0  0  0  0  0  0  0  0  0  0  0  0
   50.4070   53.2360   20.0890 C   0  0  0  0  0  0  0  0  0  0  0  0
   50.2140   54.3290   19.3230 N   0  0  0  0  0  0  0  0  0  0  0  0
   50.4550   54.3120   18.3830 H   0  0  0  0  0  0  0  0  0  0  0  0
   50.2010   53.2890   21.2860 O   0  0  0  0  0  0  0  0  0  0  0  0
   49.6650   55.4900   19.8850 C   0  0  0  0  0  0  0  0  0  0  0  0
   48.2960   55.7030   19.8440 C   0  0  0  0  0  0  0  0  0  0  0  0
   47.7570   56.8480   20.3980 C   0  0  0  0  0  0  0  0  0  0  0  0
   48.5790   57.7870   20.9930 C   0  0  0  0  0  0  0  0  0  0  0  0
   49.9450   57.5840   21.0400 C   0  0  0  0  0  0  0  0  0  0  0  0
   50.4950   56.4330   20.4910 C   0  0  0  0  0  0  0  0  0  0  0  0
   52.2360   56.1690   20.5540 S   0  0  0  0  0  0  0  0  0  0  0  0
   52.8370   57.4640   21.6730 C   0  0  0  0  0  0  0  0  0  0  0  0
   52.5370   50.6250   20.4890 C   0  0  0  0  0  0  0  0  0  0  0  0
   51.0370   50.8990   20.3580 C   0  0  2  0  0  0  0  0  0  0  0  0
   50.3640   49.7110   19.7190 C   0  0  0  0  0  0  0  0  0  0  0  0
   49.4860   49.8940   18.7140 N   0  0  0  0  0  0  0  0  0  0  0  0
   49.2870   50.7910   18.4000 H   0  0  0  0  0  0  0  0  0  0  0  0
   50.6140   48.5910   20.1110 O   0  0  0  0  0  0  0  0  0  0  0  0
   48.8330   48.7400   18.0920 C   0  0  0  0  0  0  0  0  0  0  0  0
   48.5060   49.0590   16.6560 C   0  0  0  0  0  0  0  0  0  0  0  0
   49.0470   50.0530   15.9280 C   0  0  0  0  0  0  0  0  0  0  0  0
   48.4570   49.9890   14.6450 C   0  0  0  0  0  0  0  0  0  0  0  0
   47.5900   48.9600   14.6660 C   0  0  0  0  0  0  0  0  0  0  0  0
   47.6290   48.3970   15.8840 O   0  0  0  0  0  0  0  0  0  0  0  0
  1  3  1  0  0  0  0
  2  1  1  0  0  0  0
  3  6  2  0  0  0  0
  4  7  1  0  0  0  0
  4  3  1  0  0  0  0
  5  4  1  0  0  0  0
  7 12  1  0  0  0  0
  8  7  2  0  0  0  0
  8  9  1  0  0  0  0
  9 10  2  0  0  0  0
 10 11  1  0  0  0  0
 12 13  1  0  0  0  0
 12 11  2  0  0  0  0
 13 14  1  0  0  0  0
 16  1  1  6  0  0  0
 16 15  1  0  0  0  0
 17 20  2  0  0  0  0
 17 16  1  0  0  0  0
 18 17  1  0  0  0  0
 19 18  1  0  0  0  0
 21 18  1  0  0  0  0
 22 21  1  0  0  0  0
 23 22  2  0  0  0  0
 24 25  2  0  0  0  0
 24 23  1  0  0  0  0
 25 26  1  0  0  0  0
 26 22  1  0  0  0  0
M  END
>  <MODEL>
5

>  <REMARK>
  Name = ZINC65607663
                            x       y       z     vdW  Elec       q    Type
                         _______ _______ _______ _____ _____    ______ ____

>  <TORSDO>
F 6

>  <minimizedAffinity>
-7.4186630237180804

$$$$
ZINC65607663
 OpenBabel10211216033D

 26 27  0  0  1  0  0  0  0  0999 V2000
   48.6220   56.6900   19.1340 N   0  0  0  0  0  0  0  0  0  0  0  0
   49.0740   57.2140   18.4530 H   0  0  0  0  0  0  0  0  0  0  0  0
   48.4580   55.3630   18.9650 C   0  0  0  0  0  0  0  0  0  0  0  0
   48.9240   54.7640   17.8510 N   0  0  0  0  0  0  0  0  0  0  0  0
   49.3030   55.2970   17.1350 H   0  0  0  0  0  0  0  0  0  0  0  0
   47.8920   54.7070   19.8170 O   0  0  0  0  0  0  0  0  0  0  0  0
   48.8600   53.3690   17.7270 C   0  0  0  0  0  0  0  0  0  0  0  0
   47.7240   52.7680   17.2080 C   0  0  0  0  0  0  0  0  0  0  0  0
   47.6620   51.3920   17.0870 C   0  0  0  0  0  0  0  0  0  0  0  0
   48.7320   50.6110   17.4830 C   0  0  0  0  0  0  0  0  0  0  0  0
   49.8690   51.2000   18.0010 C   0  0  0  0  0  0  0  0  0  0  0  0
   49.9420   52.5810   18.1210 C   0  0  0  0  0  0  0  0  0  0  0  0
   51.3930   53.3370   18.7760 S   0  0  0  0  0  0  0  0  0  0  0  0
   52.2580   51.9770   19.6080 C   0  0  0  0  0  0  0  0  0  0  0  0
   47.6810   58.7710   20.0110 C   0  0  0  0  0  0  0  0  0  0  0  0
   48.1160   57.3420   20.3440 C   0  0  2  0  0  0  0  0  0  0  0  0
   49.2030   57.3790   21.3870 C   0  0  0  0  0  0  0  0  0  0  0  0
   50.1580   56.4280   21.4010 N   0  0  0  0  0  0  0  0  0  0  0  0
   50.1460   55.7190   20.7380 H   0  0  0  0  0  0  0  0  0  0  0  0
   49.2180   58.2650   22.2150 O   0  0  0  0  0  0  0  0  0  0  0  0
   51.2140   56.4650   22.4150 C   0  0  0  0  0  0  0  0  0  0  0  0
   52.4900   56.9740   21.7940 C   0  0  0  0  0  0  0  0  0  0  0  0
   52.7450   57.0570   20.4760 C   0  0  0  0  0  0  0  0  0  0  0  0
   54.0490   57.5860   20.3430 C   0  0  0  0  0  0  0  0  0  0  0  0
   54.5130   57.7950   21.5880 C   0  0  0  0  0  0  0  0  0  0  0  0
   53.5620   57.4280   22.4630 O   0  0  0  0  0  0  0  0  0  0  0  0
  2  1  1  0  0  0  0
  3  1  1  0  0  0  0
  3  6  2  0  0  0  0
  4  3  1  0  0  0  0
  5  4  1  0  0  0  0
  7  4  1  0  0  0  0
  7 12  2  0  0  0  0
  8  7  1  0  0  0  0
  9  8  2  0  0  0  0
  9 10  1  0  0  0  0
 10 11  2  0  0  0  0
 11 12  1  0  0  0  0
 12 13  1  0  0  0  0
 13 14  1  0  0  0  0
 15 16  1  0  0  0  0
 16  1  1  6  0  0  0
 16 17  1  0  0  0  0
 17 18  1  0  0  0  0
 17 20  2  0  0  0  0
 18 21  1  0  0  0  0
 19 18  1  0  0  0  0
 22 21  1  0  0  0  0
 22 26  1  0  0  0  0
 23 22  2  0  0  0  0
 24 23  1  0  0  0  0
 24 25  2  0  0  0  0
 25 26  1  0  0  0  0
M  END
>  <MODEL>
6

>  <REMARK>
  Name = ZINC65607663
                            x       y       z     vdW  Elec       q    Type
                         _______ _______ _______ _____ _____    ______ ____

>  <TORSDO>
F 6

>  <minimizedAffinity>
-7.3156983562164646

$$$$
ZINC65607663
 OpenBabel10211216033D

 26 27  0  0  1  0  0  0  0  0999 V2000
   50.2760   51.7980   19.2880 N   0  0  0  0  0  0  0  0  0  0  0  0
   49.6080   52.2350   19.8400 H   0  0  0  0  0  0  0  0  0  0  0  0
   49.8930   51.0330   18.2460 C   0  0  0  0  0  0  0  0  0  0  0  0
   48.5830   50.8760   17.9720 N   0  0  0  0  0  0  0  0  0  0  0  0
   47.9140   51.2450   18.5690 H   0  0  0  0  0  0  0  0  0  0  0  0
   50.7290   50.4850   17.5540 O   0  0  0  0  0  0  0  0  0  0  0  0
   48.1860   50.1800   16.8210 C   0  0  0  0  0  0  0  0  0  0  0  0
   48.5800   50.6240   15.5680 C   0  0  0  0  0  0  0  0  0  0  0  0
   48.1880   49.9370   14.4350 C   0  0  0  0  0  0  0  0  0  0  0  0
   47.4030   48.8040   14.5460 C   0  0  0  0  0  0  0  0  0  0  0  0
   47.0050   48.3520   15.7900 C   0  0  0  0  0  0  0  0  0  0  0  0
   47.3990   49.0330   16.9340 C   0  0  0  0  0  0  0  0  0  0  0  0
   46.8990   48.4570   18.5220 S   0  0  0  0  0  0  0  0  0  0  0  0
   45.2110   47.8480   18.2570 C   0  0  0  0  0  0  0  0  0  0  0  0
   52.0230   51.3070   20.9280 C   0  0  0  0  0  0  0  0  0  0  0  0
   51.6990   51.9680   19.5870 C   0  0  2  0  0  0  0  0  0  0  0  0
   52.0250   53.4380   19.6600 C   0  0  0  0  0  0  0  0  0  0  0  0
   51.7440   54.1360   20.7780 N   0  0  0  0  0  0  0  0  0  0  0  0
   51.3330   53.6920   21.5360 H   0  0  0  0  0  0  0  0  0  0  0  0
   52.5400   53.9920   18.7120 O   0  0  0  0  0  0  0  0  0  0  0  0
   52.0610   55.5640   20.8490 C   0  0  0  0  0  0  0  0  0  0  0  0
   50.7950   56.3500   21.0760 C   0  0  0  0  0  0  0  0  0  0  0  0
   49.5930   56.0770   20.5380 C   0  0  0  0  0  0  0  0  0  0  0  0
   48.6980   57.0620   21.0150 C   0  0  0  0  0  0  0  0  0  0  0  0
   49.4070   57.8780   21.8160 C   0  0  0  0  0  0  0  0  0  0  0  0
   50.6750   57.4380   21.8530 O   0  0  0  0  0  0  0  0  0  0  0  0
  1  2  1  0  0  0  0
  3  1  1  0  0  0  0
  4  3  1  0  0  0  0
  4  5  1  0  0  0  0
  6  3  2  0  0  0  0
  7 12  1  0  0  0  0
  7  4  1  0  0  0  0
  8  7  2  0  0  0  0
  9 10  2  0  0  0  0
  9  8  1  0  0  0  0
 10 11  1  0  0  0  0
 11 12  2  0  0  0  0
 12 13  1  0  0  0  0
 14 13  1  0  0  0  0
 16  1  1  1  0  0  0
 16 17  1  0  0  0  0
 16 15  1  0  0  0  0
 17 18  1  0  0  0  0
 18 21  1  0  0  0  0
 18 19  1  0  0  0  0
 20 17  2  0  0  0  0
 21 22  1  0  0  0  0
 22 26  1  0  0  0  0
 23 24  1  0  0  0  0
 23 22  2  0  0  0  0
 24 25  2  0  0  0  0
 25 26  1  0  0  0  0
M  END
>  <MODEL>
7

>  <REMARK>
  Name = ZINC65607663
                            x       y       z     vdW  Elec       q    Type
                         _______ _______ _______ _____ _____    ______ ____

>  <TORSDO>
F 6

>  <minimizedAffinity>
-7.2628642354585482

$$$$
ZINC65607663
 OpenBabel10211216033D

 26 27  0  0  1  0  0  0  0  0999 V2000
   48.5530   53.2280   18.2870 N   0  0  0  0  0  0  0  0  0  0  0  0
   48.1170   52.5750   18.8580 H   0  0  0  0  0  0  0  0  0  0  0  0
   49.0790   54.3470   18.8240 C   0  0  0  0  0  0  0  0  0  0  0  0
   49.0020   54.5570   20.1530 N   0  0  0  0  0  0  0  0  0  0  0  0
   48.4960   53.9460   20.7130 H   0  0  0  0  0  0  0  0  0  0  0  0
   49.6250   55.1650   18.1100 O   0  0  0  0  0  0  0  0  0  0  0  0
   49.6510   55.6590   20.7280 C   0  0  0  0  0  0  0  0  0  0  0  0
   48.9480   56.8280   20.9770 C   0  0  0  0  0  0  0  0  0  0  0  0
   49.5900   57.9130   21.5420 C   0  0  0  0  0  0  0  0  0  0  0  0
   50.9330   57.8380   21.8620 C   0  0  0  0  0  0  0  0  0  0  0  0
   51.6430   56.6780   21.6180 C   0  0  0  0  0  0  0  0  0  0  0  0
   51.0050   55.5800   21.0550 C   0  0  0  0  0  0  0  0  0  0  0  0
   51.9040   54.0970   20.7490 S   0  0  0  0  0  0  0  0  0  0  0  0
   51.5350   53.0540   22.1870 C   0  0  0  0  0  0  0  0  0  0  0  0
   47.4390   53.6540   16.1510 C   0  0  0  0  0  0  0  0  0  0  0  0
   48.6370   53.0000   16.8430 C   0  0  2  0  0  0  0  0  0  0  0  0
   48.6280   51.5180   16.5670 C   0  0  0  0  0  0  0  0  0  0  0  0
   47.4650   50.8370   16.5750 N   0  0  0  0  0  0  0  0  0  0  0  0
   46.6320   51.3020   16.7570 H   0  0  0  0  0  0  0  0  0  0  0  0
   49.6680   50.9380   16.3390 O   0  0  0  0  0  0  0  0  0  0  0  0
   47.4560   49.3980   16.3070 C   0  0  0  0  0  0  0  0  0  0  0  0
   46.4550   48.7230   17.2100 C   0  0  0  0  0  0  0  0  0  0  0  0
   45.1210   48.7130   17.0370 C   0  0  0  0  0  0  0  0  0  0  0  0
   44.5750   47.9720   18.1100 C   0  0  0  0  0  0  0  0  0  0  0  0
   45.6080   47.5740   18.8750 C   0  0  0  0  0  0  0  0  0  0  0  0
   46.7450   48.0270   18.3220 O   0  0  0  0  0  0  0  0  0  0  0  0
  1  3  1  0  0  0  0
  1  2  1  0  0  0  0
  3  4  1  0  0  0  0
  4  5  1  0  0  0  0
  4  7  1  0  0  0  0
  6  3  2  0  0  0  0
  7  8  2  0  0  0  0
  7 12  1  0  0  0  0
  8  9  1  0  0  0  0
  9 10  2  0  0  0  0
 11 10  1  0  0  0  0
 12 11  2  0  0  0  0
 13 12  1  0  0  0  0
 13 14  1  0  0  0  0
 16 15  1  1  0  0  0
 16  1  1  0  0  0  0
 17 18  1  0  0  0  0
 17 16  1  0  0  0  0
 18 19  1  0  0  0  0
 20 17  2  0  0  0  0
 21 18  1  0  0  0  0
 21 22  1  0  0  0  0
 22 26  1  0  0  0  0
 23 22  2  0  0  0  0
 23 24  1  0  0  0  0
 24 25  2  0  0  0  0
 26 25  1  0  0  0  0
M  END
>  <MODEL>
8

>  <REMARK>
  Name = ZINC65607663
                            x       y       z     vdW  Elec       q    Type
                         _______ _______ _______ _____ _____    ______ ____

>  <TORSDO>
F 6

>  <minimizedAffinity>
-6.932192716439924

$$$$
ZINC65607663
 OpenBabel10211216033D

 26 27  0  0  1  0  0  0  0  0999 V2000
   49.3060   55.3750   18.0680 N   0  0  0  0  0  0  0  0  0  0  0  0
   50.0120   55.6340   17.4540 H   0  0  0  0  0  0  0  0  0  0  0  0
   49.2030   54.0940   18.4750 C   0  0  0  0  0  0  0  0  0  0  0  0
   50.0810   53.1740   18.0290 N   0  0  0  0  0  0  0  0  0  0  0  0
   50.7350   53.4130   17.3540 H   0  0  0  0  0  0  0  0  0  0  0  0
   48.3200   53.7690   19.2440 O   0  0  0  0  0  0  0  0  0  0  0  0
   50.0490   51.8690   18.5410 C   0  0  0  0  0  0  0  0  0  0  0  0
   49.1790   50.9320   18.0040 C   0  0  0  0  0  0  0  0  0  0  0  0
   49.1480   49.6470   18.5110 C   0  0  0  0  0  0  0  0  0  0  0  0
   49.9830   49.2900   19.5540 C   0  0  0  0  0  0  0  0  0  0  0  0
   50.8540   50.2150   20.0950 C   0  0  0  0  0  0  0  0  0  0  0  0
   50.8960   51.5080   19.5890 C   0  0  0  0  0  0  0  0  0  0  0  0
   52.0100   52.6890   20.2730 S   0  0  0  0  0  0  0  0  0  0  0  0
   51.1490   53.3000   21.7490 C   0  0  0  0  0  0  0  0  0  0  0  0
   47.9840   57.3250   17.4100 C   0  0  0  0  0  0  0  0  0  0  0  0
   48.3530   56.3760   18.5520 C   0  0  2  0  0  0  0  0  0  0  0  0
   48.9770   57.1620   19.6760 C   0  0  0  0  0  0  0  0  0  0  0  0
   49.7960   56.5510   20.5540 N   0  0  0  0  0  0  0  0  0  0  0  0
   49.9860   55.6040   20.4620 H   0  0  0  0  0  0  0  0  0  0  0  0
   48.7410   58.3470   19.7900 O   0  0  0  0  0  0  0  0  0  0  0  0
   50.4030   57.3160   21.6460 C   0  0  0  0  0  0  0  0  0  0  0  0
   51.8750   57.4960   21.3770 C   0  0  0  0  0  0  0  0  0  0  0  0
   52.5900   56.8410   20.4450 C   0  0  0  0  0  0  0  0  0  0  0  0
   53.9190   57.3160   20.5400 C   0  0  0  0  0  0  0  0  0  0  0  0
   53.9350   58.2330   21.5240 C   0  0  0  0  0  0  0  0  0  0  0  0
   52.6930   58.3420   22.0230 O   0  0  0  0  0  0  0  0  0  0  0  0
  1  3  1  0  0  0  0
  1 16  1  0  0  0  0
  2  1  1  0  0  0  0
  3  6  2  0  0  0  0
  4  3  1  0  0  0  0
  4  7  1  0  0  0  0
  5  4  1  0  0  0  0
  7 12  2  0  0  0  0
  8  9  2  0  0  0  0
  8  7  1  0  0  0  0
  9 10  1  0  0  0  0
 10 11  2  0  0  0  0
 12 11  1  0  0  0  0
 12 13  1  0  0  0  0
 13 14  1  0  0  0  0
 16 15  1  6  0  0  0
 16 17  1  0  0  0  0
 17 20  2  0  0  0  0
 17 18  1  0  0  0  0
 18 21  1  0  0  0  0
 19 18  1  0  0  0  0
 22 21  1  0  0  0  0
 22 26  1  0  0  0  0
 23 24  1  0  0  0  0
 23 22  2  0  0  0  0
 24 25  2  0  0  0  0
 25 26  1  0  0  0  0
M  END
>  <MODEL>
9

>  <REMARK>
  Name = ZINC65607663
                            x       y       z     vdW  Elec       q    Type
                         _______ _______ _______ _____ _____    ______ ____

>  <TORSDO>
F 6

>  <minimizedAffinity>
-6.8677337531644209

$$$$
ZINC39051843
 OpenBabel10211216043D

 28 30  0  0  1  0  0  0  0  0999 V2000
   51.2100   52.2200   18.2060 N   0  0  0  0  0  0  0  0  0  0  0  0
   50.3030   51.4510   17.5130 C   0  0  0  0  0  0  0  0  0  0  0  0
   49.0770   51.9900   17.1820 C   0  0  0  0  0  0  0  0  0  0  0  0
   48.7910   53.3140   17.5650 C   0  0  0  0  0  0  0  0  0  0  0  0
   49.7150   54.0240   18.2430 N   0  0  0  0  0  0  0  0  0  0  0  0
   47.7150   53.8150   17.2860 O   0  0  0  0  0  0  0  0  0  0  0  0
   50.9030   53.4800   18.5620 C   0  0  0  0  0  0  0  0  0  0  0  0
   51.7150   54.1420   19.1770 O   0  0  0  0  0  0  0  0  0  0  0  0
   48.1260   51.2280   16.4720 N   0  0  0  0  0  0  0  0  0  0  0  0
   47.9340   51.4340   15.5430 H   0  0  0  0  0  0  0  0  0  0  0  0
   47.4850   50.2100   17.0830 C   0  0  0  0  0  0  0  0  0  0  0  0
   47.6610   50.0040   18.2660 O   0  0  0  0  0  0  0  0  0  0  0  0
   46.5480   49.3280   16.2970 C   0  0  2  0  0  0  0  0  0  0  0  0
   46.0100   48.1780   17.1850 C   0  0  0  0  0  0  0  0  0  0  0  0
   46.5230   46.8880   16.4670 C   0  0  1  0  0  0  0  0  0  0  0  0
   46.3940   47.3290   14.9640 C   0  0  0  0  0  0  0  0  0  0  0  0
   48.0440   46.9420   16.6480 C   0  0  0  0  0  0  0  0  0  0  0  0
   48.5060   47.9350   15.8680 C   0  0  0  0  0  0  0  0  0  0  0  0
   47.3160   48.5900   15.1550 C   0  0  2  0  0  0  0  0  0  0  0  0
   50.6150   50.1620   17.1540 N   0  0  0  0  0  0  0  0  0  0  0  0
   51.5030   49.9500   16.8280 H   0  0  0  0  0  0  0  0  0  0  0  0
   49.9460   49.4630   17.2280 H   0  0  0  0  0  0  0  0  0  0  0  0
   52.5160   51.6600   18.5640 C   0  0  0  0  0  0  0  0  0  0  0  0
   52.8180   49.5750   19.9060 C   0  0  0  0  0  0  0  0  0  0  0  0
   52.4440   51.0570   19.9680 C   0  0  0  0  0  0  0  0  0  0  0  0
   49.4190   55.4020   18.6410 C   0  0  0  0  0  0  0  0  0  0  0  0
   48.7190   55.4010   20.0020 C   0  0  0  0  0  0  0  0  0  0  0  0
   47.9410   56.7060   20.1760 C   0  0  0  0  0  0  0  0  0  0  0  0
  1  7  1  0  0  0  0
  1 23  1  0  0  0  0
  2  1  1  0  0  0  0
  3  2  2  0  0  0  0
  3  4  1  0  0  0  0
  4  5  1  0  0  0  0
  5  7  1  0  0  0  0
  5 26  1  0  0  0  0
  6  4  2  0  0  0  0
  7  8  2  0  0  0  0
  9 11  1  0  0  0  0
  9  3  1  0  0  0  0
 10  9  1  0  0  0  0
 11 12  2  0  0  0  0
 13 11  1  1  0  0  0
 13 14  1  0  0  0  0
 15 16  1  6  0  0  0
 15 17  1  0  0  0  0
 15 14  1  0  0  0  0
 18 17  1  0  0  0  0
 19 16  1  1  0  0  0
 19 18  1  0  0  0  0
 19 13  1  0  0  0  0
 20 22  1  0  0  0  0
 20  2  1  0  0  0  0
 21 20  1  0  0  0  0
 23 25  1  0  0  0  0
 24 25  1  0  0  0  0
 26 27  1  0  0  0  0
 27 28  1  0  0  0  0
M  END
>  <MODEL>
1

>  <REMARK>
  Name = ZINC39051843
                            x       y       z     vdW  Elec       q    Type
                         _______ _______ _______ _____ _____    ______ ____

>  <TORSDO>
F 7

>  <minimizedAffinity>
-7.4811817383184138

$$$$
ZINC39051843
 OpenBabel10211216043D

 28 30  0  0  1  0  0  0  0  0999 V2000
   49.4700   53.6900   18.1670 N   0  0  0  0  0  0  0  0  0  0  0  0
   48.9560   52.5910   17.5170 C   0  0  0  0  0  0  0  0  0  0  0  0
   49.6770   51.4150   17.5100 C   0  0  0  0  0  0  0  0  0  0  0  0
   50.9200   51.3760   18.1690 C   0  0  0  0  0  0  0  0  0  0  0  0
   51.3780   52.4810   18.7900 N   0  0  0  0  0  0  0  0  0  0  0  0
   51.5790   50.3500   18.1780 O   0  0  0  0  0  0  0  0  0  0  0  0
   50.6630   53.6210   18.7820 C   0  0  0  0  0  0  0  0  0  0  0  0
   51.1030   54.6040   19.3470 O   0  0  0  0  0  0  0  0  0  0  0  0
   49.1770   50.2710   16.8540 N   0  0  0  0  0  0  0  0  0  0  0  0
   49.2100   50.2130   15.8850 H   0  0  0  0  0  0  0  0  0  0  0  0
   48.6540   49.2560   17.5730 C   0  0  0  0  0  0  0  0  0  0  0  0
   48.5350   49.3620   18.7760 O   0  0  0  0  0  0  0  0  0  0  0  0
   48.2170   47.9900   16.8820 C   0  0  2  0  0  0  0  0  0  0  0  0
   47.8230   48.2790   15.4120 C   0  0  0  0  0  0  0  0  0  0  0  0
   46.3160   47.8710   15.3470 C   0  0  1  0  0  0  0  0  0  0  0  0
   46.3170   46.6260   16.3070 C   0  0  0  0  0  0  0  0  0  0  0  0
   45.6120   48.9080   16.2300 C   0  0  0  0  0  0  0  0  0  0  0  0
   45.9500   48.6450   17.5040 C   0  0  0  0  0  0  0  0  0  0  0  0
   46.9010   47.4420   17.5200 C   0  0  2  0  0  0  0  0  0  0  0  0
   47.7390   52.6640   16.8830 N   0  0  0  0  0  0  0  0  0  0  0  0
   46.9530   52.9510   17.3730 H   0  0  0  0  0  0  0  0  0  0  0  0
   47.6660   52.4280   15.9450 H   0  0  0  0  0  0  0  0  0  0  0  0
   48.7140   54.9460   18.1820 C   0  0  0  0  0  0  0  0  0  0  0  0
   48.1330   56.6100   19.9510 C   0  0  0  0  0  0  0  0  0  0  0  0
   48.0660   55.1340   19.5540 C   0  0  0  0  0  0  0  0  0  0  0  0
   52.6710   52.4420   19.4780 C   0  0  0  0  0  0  0  0  0  0  0  0
   52.5540   51.5790   20.7350 C   0  0  0  0  0  0  0  0  0  0  0  0
   51.7730   52.3410   21.8070 C   0  0  0  0  0  0  0  0  0  0  0  0
  1 23  1  0  0  0  0
  1  7  1  0  0  0  0
  2  1  1  0  0  0  0
  3  2  2  0  0  0  0
  3  4  1  0  0  0  0
  4  6  2  0  0  0  0
  4  5  1  0  0  0  0
  5 26  1  0  0  0  0
  7  5  1  0  0  0  0
  7  8  2  0  0  0  0
  9  3  1  0  0  0  0
  9 11  1  0  0  0  0
 10  9  1  0  0  0  0
 11 12  2  0  0  0  0
 13 19  1  0  0  0  0
 13 11  1  6  0  0  0
 14 13  1  0  0  0  0
 15 14  1  1  0  0  0
 15 17  1  0  0  0  0
 15 16  1  0  0  0  0
 17 18  1  0  0  0  0
 18 19  1  0  0  0  0
 19 16  1  6  0  0  0
 20 21  1  0  0  0  0
 20  2  1  0  0  0  0
 22 20  1  0  0  0  0
 23 25  1  0  0  0  0
 25 24  1  0  0  0  0
 26 27  1  0  0  0  0
 27 28  1  0  0  0  0
M  END
>  <MODEL>
2

>  <REMARK>
  Name = ZINC39051843
                            x       y       z     vdW  Elec       q    Type
                         _______ _______ _______ _____ _____    ______ ____

>  <TORSDO>
F 7

>  <minimizedAffinity>
-7.1802962969472857

$$$$
ZINC39051843
 OpenBabel10211216043D

 28 30  0  0  1  0  0  0  0  0999 V2000
   49.3920   53.2830   18.2210 N   0  0  0  0  0  0  0  0  0  0  0  0
   48.5550   52.6460   17.3340 C   0  0  0  0  0  0  0  0  0  0  0  0
   48.6880   51.2860   17.1400 C   0  0  0  0  0  0  0  0  0  0  0  0
   49.6790   50.5910   17.8590 C   0  0  0  0  0  0  0  0  0  0  0  0
   50.4730   51.2630   18.7160 N   0  0  0  0  0  0  0  0  0  0  0  0
   49.8180   49.3890   17.7060 O   0  0  0  0  0  0  0  0  0  0  0  0
   50.3330   52.5900   18.8870 C   0  0  0  0  0  0  0  0  0  0  0  0
   51.0660   53.1710   19.6640 O   0  0  0  0  0  0  0  0  0  0  0  0
   47.8450   50.6050   16.2380 N   0  0  0  0  0  0  0  0  0  0  0  0
   48.0070   50.6620   15.2830 H   0  0  0  0  0  0  0  0  0  0  0  0
   46.8120   49.8710   16.7040 C   0  0  0  0  0  0  0  0  0  0  0  0
   46.5570   49.8660   17.8900 O   0  0  0  0  0  0  0  0  0  0  0  0
   45.9750   49.0570   15.7510 C   0  0  2  0  0  0  0  0  0  0  0  0
   44.9350   48.2110   16.5260 C   0  0  0  0  0  0  0  0  0  0  0  0
   45.3160   46.7390   16.1660 C   0  0  1  0  0  0  0  0  0  0  0  0
   45.7580   46.9180   14.6680 C   0  0  0  0  0  0  0  0  0  0  0  0
   46.6780   46.5320   16.8390 C   0  0  0  0  0  0  0  0  0  0  0  0
   47.5770   47.2620   16.1560 C   0  0  0  0  0  0  0  0  0  0  0  0
   46.8520   47.9920   15.0190 C   0  0  2  0  0  0  0  0  0  0  0  0
   47.5980   53.3550   16.6490 N   0  0  0  0  0  0  0  0  0  0  0  0
   46.6900   53.3960   16.9860 H   0  0  0  0  0  0  0  0  0  0  0  0
   47.8320   53.8160   15.8280 H   0  0  0  0  0  0  0  0  0  0  0  0
   49.2630   54.7260   18.4360 C   0  0  0  0  0  0  0  0  0  0  0  0
   48.3720   56.4760   19.9810 C   0  0  0  0  0  0  0  0  0  0  0  0
   48.3610   54.9830   19.6450 C   0  0  0  0  0  0  0  0  0  0  0  0
   51.5040   50.5410   19.4650 C   0  0  0  0  0  0  0  0  0  0  0  0
   50.9830   50.2170   20.8670 C   0  0  0  0  0  0  0  0  0  0  0  0
   50.5380   48.7550   20.9200 C   0  0  0  0  0  0  0  0  0  0  0  0
  1 23  1  0  0  0  0
  1  7  1  0  0  0  0
  2  1  1  0  0  0  0
  3  2  2  0  0  0  0
  3  4  1  0  0  0  0
  4  5  1  0  0  0  0
  5  7  1  0  0  0  0
  5 26  1  0  0  0  0
  6  4  2  0  0  0  0
  7  8  2  0  0  0  0
  9 11  1  0  0  0  0
  9  3  1  0  0  0  0
 10  9  1  0  0  0  0
 11 12  2  0  0  0  0
 13 14  1  0  0  0  0
 13 11  1  1  0  0  0
 15 16  1  6  0  0  0
 15 14  1  0  0  0  0
 15 17  1  0  0  0  0
 18 17  1  0  0  0  0
 19 16  1  1  0  0  0
 19 13  1  0  0  0  0
 19 18  1  0  0  0  0
 20 21  1  0  0  0  0
 20  2  1  0  0  0  0
 22 20  1  0  0  0  0
 23 25  1  0  0  0  0
 25 24  1  0  0  0  0
 26 27  1  0  0  0  0
 27 28  1  0  0  0  0
M  END
>  <MODEL>
3

>  <REMARK>
  Name = ZINC39051843
                            x       y       z     vdW  Elec       q    Type
                         _______ _______ _______ _____ _____    ______ ____

>  <TORSDO>
F 7

>  <minimizedAffinity>
-7.1470730707160097

$$$$
ZINC39051843
 OpenBabel10211216043D

 28 30  0  0  1  0  0  0  0  0999 V2000
   49.0300   56.3200   18.7980 N   0  0  0  0  0  0  0  0  0  0  0  0
   49.4520   55.0430   19.0910 C   0  0  0  0  0  0  0  0  0  0  0  0
   49.1590   54.0190   18.2140 C   0  0  0  0  0  0  0  0  0  0  0  0
   48.4360   54.3130   17.0420 C   0  0  0  0  0  0  0  0  0  0  0  0
   48.0460   55.5810   16.8040 N   0  0  0  0  0  0  0  0  0  0  0  0
   48.1630   53.4270   16.2500 O   0  0  0  0  0  0  0  0  0  0  0  0
   48.3350   56.5650   17.6730 C   0  0  0  0  0  0  0  0  0  0  0  0
   47.9670   57.6990   17.4340 O   0  0  0  0  0  0  0  0  0  0  0  0
   49.5780   52.7000   18.4850 N   0  0  0  0  0  0  0  0  0  0  0  0
   48.9380   52.0400   18.7940 H   0  0  0  0  0  0  0  0  0  0  0  0
   50.8720   52.3550   18.3150 C   0  0  0  0  0  0  0  0  0  0  0  0
   51.6900   53.1990   18.0120 O   0  0  0  0  0  0  0  0  0  0  0  0
   51.3020   50.9230   18.5020 C   0  0  2  0  0  0  0  0  0  0  0  0
   50.2060   50.1190   19.2460 C   0  0  0  0  0  0  0  0  0  0  0  0
   50.9170   49.6510   20.5560 C   0  0  1  0  0  0  0  0  0  0  0  0
   52.3660   49.3770   20.0110 C   0  0  0  0  0  0  0  0  0  0  0  0
   51.1500   50.9500   21.3370 C   0  0  0  0  0  0  0  0  0  0  0  0
   52.1080   51.6380   20.6920 C   0  0  0  0  0  0  0  0  0  0  0  0
   52.5370   50.8390   19.4550 C   0  0  2  0  0  0  0  0  0  0  0  0
   50.1560   54.7910   20.2440 N   0  0  0  0  0  0  0  0  0  0  0  0
   50.5820   53.9290   20.3740 H   0  0  0  0  0  0  0  0  0  0  0  0
   50.2280   55.4750   20.9270 H   0  0  0  0  0  0  0  0  0  0  0  0
   49.3330   57.4160   19.7210 C   0  0  0  0  0  0  0  0  0  0  0  0
   48.7110   58.3760   21.9420 C   0  0  0  0  0  0  0  0  0  0  0  0
   48.2240   57.5220   20.7690 C   0  0  0  0  0  0  0  0  0  0  0  0
   47.2940   55.8890   15.5850 C   0  0  0  0  0  0  0  0  0  0  0  0
   48.1540   56.7520   14.6590 C   0  0  0  0  0  0  0  0  0  0  0  0
   47.3140   57.2140   13.4670 C   0  0  0  0  0  0  0  0  0  0  0  0
  1  2  1  0  0  0  0
  1 23  1  0  0  0  0
  2 20  1  0  0  0  0
  3  9  1  0  0  0  0
  3  2  2  0  0  0  0
  4  3  1  0  0  0  0
  5  4  1  0  0  0  0
  5  7  1  0  0  0  0
  6  4  2  0  0  0  0
  7  1  1  0  0  0  0
  8  7  2  0  0  0  0
  9 10  1  0  0  0  0
 11  9  1  0  0  0  0
 12 11  2  0  0  0  0
 13 11  1  1  0  0  0
 13 14  1  0  0  0  0
 13 19  1  0  0  0  0
 15 14  1  6  0  0  0
 15 17  1  0  0  0  0
 16 15  1  0  0  0  0
 18 17  1  0  0  0  0
 19 16  1  1  0  0  0
 19 18  1  0  0  0  0
 20 21  1  0  0  0  0
 20 22  1  0  0  0  0
 23 25  1  0  0  0  0
 25 24  1  0  0  0  0
 26  5  1  0  0  0  0
 27 26  1  0  0  0  0
 28 27  1  0  0  0  0
M  END
>  <MODEL>
4

>  <REMARK>
  Name = ZINC39051843
                            x       y       z     vdW  Elec       q    Type
                         _______ _______ _______ _____ _____    ______ ____

>  <TORSDO>
F 7

>  <minimizedAffinity>
-6.9650029324468408

$$$$
ZINC39051843
 OpenBabel10211216043D

 28 30  0  0  1  0  0  0  0  0999 V2000
   50.8230   51.1710   18.7830 N   0  0  0  0  0  0  0  0  0  0  0  0
   51.0180   52.5050   19.0580 C   0  0  0  0  0  0  0  0  0  0  0  0
   50.1980   53.4430   18.4640 C   0  0  0  0  0  0  0  0  0  0  0  0
   49.1830   53.0040   17.5940 C   0  0  0  0  0  0  0  0  0  0  0  0
   49.0340   51.6850   17.3580 N   0  0  0  0  0  0  0  0  0  0  0  0
   48.4440   53.8100   17.0550 O   0  0  0  0  0  0  0  0  0  0  0  0
   49.8470   50.7860   17.9410 C   0  0  0  0  0  0  0  0  0  0  0  0
   49.6930   49.6030   17.7070 O   0  0  0  0  0  0  0  0  0  0  0  0
   50.3720   54.8170   18.7270 N   0  0  0  0  0  0  0  0  0  0  0  0
   50.8010   55.3870   18.0690 H   0  0  0  0  0  0  0  0  0  0  0  0
   49.9420   55.3410   19.8940 C   0  0  0  0  0  0  0  0  0  0  0  0
   49.4830   54.6160   20.7520 O   0  0  0  0  0  0  0  0  0  0  0  0
   50.0320   56.8260   20.1330 C   0  0  2  0  0  0  0  0  0  0  0  0
   49.4910   57.1850   21.5390 C   0  0  0  0  0  0  0  0  0  0  0  0
   48.2820   58.1280   21.2400 C   0  0  1  0  0  0  0  0  0  0  0  0
   48.8330   58.9100   19.9920 C   0  0  0  0  0  0  0  0  0  0  0  0
   47.2530   57.2120   20.5660 C   0  0  0  0  0  0  0  0  0  0  0  0
   47.7240   56.9120   19.3430 C   0  0  0  0  0  0  0  0  0  0  0  0
   49.0840   57.5980   19.1600 C   0  0  2  0  0  0  0  0  0  0  0  0
   52.0190   52.9000   19.9130 N   0  0  0  0  0  0  0  0  0  0  0  0
   52.2080   53.8420   20.0370 H   0  0  0  0  0  0  0  0  0  0  0  0
   52.5360   52.2340   20.3940 H   0  0  0  0  0  0  0  0  0  0  0  0
   51.6870   50.1650   19.4050 C   0  0  0  0  0  0  0  0  0  0  0  0
   50.6310   48.3660   20.7790 C   0  0  0  0  0  0  0  0  0  0  0  0
   51.1400   49.8080   20.7890 C   0  0  0  0  0  0  0  0  0  0  0  0
   47.9780   51.2260   16.4530 C   0  0  0  0  0  0  0  0  0  0  0  0
   46.6770   51.0450   17.2370 C   0  0  0  0  0  0  0  0  0  0  0  0
   46.2300   49.5840   17.1550 C   0  0  0  0  0  0  0  0  0  0  0  0
  1  2  1  0  0  0  0
  1 23  1  0  0  0  0
  2 20  1  0  0  0  0
  3  9  1  0  0  0  0
  3  2  2  0  0  0  0
  4  3  1  0  0  0  0
  5  4  1  0  0  0  0
  5  7  1  0  0  0  0
  6  4  2  0  0  0  0
  7  1  1  0  0  0  0
  8  7  2  0  0  0  0
  9 11  1  0  0  0  0
 10  9  1  0  0  0  0
 11 12  2  0  0  0  0
 13 11  1  1  0  0  0
 13 14  1  0  0  0  0
 15 16  1  6  0  0  0
 15 14  1  0  0  0  0
 17 15  1  0  0  0  0
 18 17  1  0  0  0  0
 19 18  1  1  0  0  0
 19 16  1  0  0  0  0
 19 13  1  0  0  0  0
 20 21  1  0  0  0  0
 20 22  1  0  0  0  0
 23 25  1  0  0  0  0
 24 25  1  0  0  0  0
 26 27  1  0  0  0  0
 26  5  1  0  0  0  0
 28 27  1  0  0  0  0
M  END
>  <MODEL>
5

>  <REMARK>
  Name = ZINC39051843
                            x       y       z     vdW  Elec       q    Type
                         _______ _______ _______ _____ _____    ______ ____

>  <TORSDO>
F 7

>  <minimizedAffinity>
-6.8641552481330672

$$$$
ZINC39051843
 OpenBabel10211216043D

 28 30  0  0  1  0  0  0  0  0999 V2000
   49.1060   51.7560   17.2950 N   0  0  0  0  0  0  0  0  0  0  0  0
   49.2400   53.0970   17.5750 C   0  0  0  0  0  0  0  0  0  0  0  0
   50.2510   53.5110   18.4190 C   0  0  0  0  0  0  0  0  0  0  0  0
   51.1160   52.5460   18.9670 C   0  0  0  0  0  0  0  0  0  0  0  0
   50.9410   51.2450   18.6600 N   0  0  0  0  0  0  0  0  0  0  0  0
   52.0170   52.8840   19.7160 O   0  0  0  0  0  0  0  0  0  0  0  0
   49.9460   50.8590   17.8410 C   0  0  0  0  0  0  0  0  0  0  0  0
   49.8090   49.6790   17.5850 O   0  0  0  0  0  0  0  0  0  0  0  0
   50.4140   54.8780   18.7250 N   0  0  0  0  0  0  0  0  0  0  0  0
   50.8850   55.4610   18.1080 H   0  0  0  0  0  0  0  0  0  0  0  0
   49.9150   55.3760   19.8760 C   0  0  0  0  0  0  0  0  0  0  0  0
   49.4020   54.6330   20.6870 O   0  0  0  0  0  0  0  0  0  0  0  0
   49.9970   56.8540   20.1550 C   0  0  2  0  0  0  0  0  0  0  0  0
   49.4310   57.1750   21.5610 C   0  0  0  0  0  0  0  0  0  0  0  0
   48.2240   58.1220   21.2660 C   0  0  1  0  0  0  0  0  0  0  0  0
   48.7950   58.9380   20.0490 C   0  0  0  0  0  0  0  0  0  0  0  0
   47.2100   57.2210   20.5510 C   0  0  0  0  0  0  0  0  0  0  0  0
   47.7020   56.9550   19.3290 C   0  0  0  0  0  0  0  0  0  0  0  0
   49.0630   57.6490   19.1880 C   0  0  2  0  0  0  0  0  0  0  0  0
   48.3770   54.0120   17.0220 N   0  0  0  0  0  0  0  0  0  0  0  0
   48.2540   54.8780   17.4410 H   0  0  0  0  0  0  0  0  0  0  0  0
   47.8920   53.7920   16.2120 H   0  0  0  0  0  0  0  0  0  0  0  0
   48.0370   51.3020   16.4020 C   0  0  0  0  0  0  0  0  0  0  0  0
   46.3500   49.5440   16.9540 C   0  0  0  0  0  0  0  0  0  0  0  0
   46.7860   50.9860   17.2230 C   0  0  0  0  0  0  0  0  0  0  0  0
   51.8410   50.2390   19.2300 C   0  0  0  0  0  0  0  0  0  0  0  0
   51.4420   49.9600   20.6800 C   0  0  0  0  0  0  0  0  0  0  0  0
   50.5740   48.7010   20.7370 C   0  0  0  0  0  0  0  0  0  0  0  0
  1  2  1  0  0  0  0
  1  7  1  0  0  0  0
  2  3  2  0  0  0  0
  3  9  1  0  0  0  0
  3  4  1  0  0  0  0
  4  6  2  0  0  0  0
  5  4  1  0  0  0  0
  5 26  1  0  0  0  0
  7  5  1  0  0  0  0
  8  7  2  0  0  0  0
  9 11  1  0  0  0  0
 10  9  1  0  0  0  0
 11 12  2  0  0  0  0
 13 11  1  1  0  0  0
 13 14  1  0  0  0  0
 15 16  1  6  0  0  0
 15 14  1  0  0  0  0
 17 15  1  0  0  0  0
 18 17  1  0  0  0  0
 19 18  1  1  0  0  0
 19 16  1  0  0  0  0
 19 13  1  0  0  0  0
 20 21  1  0  0  0  0
 20  2  1  0  0  0  0
 22 20  1  0  0  0  0
 23 25  1  0  0  0  0
 23  1  1  0  0  0  0
 24 25  1  0  0  0  0
 26 27  1  0  0  0  0
 27 28  1  0  0  0  0
M  END
>  <MODEL>
6

>  <REMARK>
  Name = ZINC39051843
                            x       y       z     vdW  Elec       q    Type
                         _______ _______ _______ _____ _____    ______ ____

>  <TORSDO>
F 7

>  <minimizedAffinity>
-6.8219605466973512

$$$$
ZINC39051843
 OpenBabel10211216043D

 28 30  0  0  1  0  0  0  0  0999 V2000
   49.2330   54.9250   17.8660 N   0  0  0  0  0  0  0  0  0  0  0  0
   48.5390   53.8220   17.4240 C   0  0  0  0  0  0  0  0  0  0  0  0
   48.8780   52.5740   17.9090 C   0  0  0  0  0  0  0  0  0  0  0  0
   49.9250   52.4700   18.8440 C   0  0  0  0  0  0  0  0  0  0  0  0
   50.5720   53.5830   19.2430 N   0  0  0  0  0  0  0  0  0  0  0  0
   50.2450   51.3810   19.2880 O   0  0  0  0  0  0  0  0  0  0  0  0
   50.2330   54.7890   18.7550 C   0  0  0  0  0  0  0  0  0  0  0  0
   50.8370   55.7750   19.1300 O   0  0  0  0  0  0  0  0  0  0  0  0
   48.1850   51.4250   17.4760 N   0  0  0  0  0  0  0  0  0  0  0  0
   47.3430   51.1790   17.8910 H   0  0  0  0  0  0  0  0  0  0  0  0
   48.6940   50.6650   16.4830 C   0  0  0  0  0  0  0  0  0  0  0  0
   49.7860   50.9210   16.0210 O   0  0  0  0  0  0  0  0  0  0  0  0
   47.9050   49.4980   15.9480 C   0  0  2  0  0  0  0  0  0  0  0  0
   46.4830   49.4740   16.5620 C   0  0  0  0  0  0  0  0  0  0  0  0
   46.4340   48.1110   17.3250 C   0  0  1  0  0  0  0  0  0  0  0  0
   47.2750   47.2090   16.3500 C   0  0  0  0  0  0  0  0  0  0  0  0
   47.4330   48.2920   18.4740 C   0  0  0  0  0  0  0  0  0  0  0  0
   48.6650   48.3020   17.9350 C   0  0  0  0  0  0  0  0  0  0  0  0
   48.5360   48.1470   16.4150 C   0  0  2  0  0  0  0  0  0  0  0  0
   47.5220   53.9590   16.5110 N   0  0  0  0  0  0  0  0  0  0  0  0
   46.6490   54.2660   16.7990 H   0  0  0  0  0  0  0  0  0  0  0  0
   47.6780   53.7500   15.5760 H   0  0  0  0  0  0  0  0  0  0  0  0
   48.8850   56.2540   17.3590 C   0  0  0  0  0  0  0  0  0  0  0  0
   47.5230   58.2990   17.8120 C   0  0  0  0  0  0  0  0  0  0  0  0
   48.0850   57.0120   18.4200 C   0  0  0  0  0  0  0  0  0  0  0  0
   51.6620   53.4760   20.2170 C   0  0  0  0  0  0  0  0  0  0  0  0
   51.0820   53.4680   21.6330 C   0  0  0  0  0  0  0  0  0  0  0  0
   51.5960   54.6870   22.4010 C   0  0  0  0  0  0  0  0  0  0  0  0
  1  7  1  0  0  0  0
  2  1  1  0  0  0  0
  2  3  2  0  0  0  0
  3  4  1  0  0  0  0
  4  5  1  0  0  0  0
  4  6  2  0  0  0  0
  5 26  1  0  0  0  0
  7  8  2  0  0  0  0
  7  5  1  0  0  0  0
  9 10  1  0  0  0  0
  9  3  1  0  0  0  0
 11  9  1  0  0  0  0
 12 11  2  0  0  0  0
 13 19  1  0  0  0  0
 13 11  1  1  0  0  0
 13 14  1  0  0  0  0
 14 15  1  0  0  0  0
 15 16  1  6  0  0  0
 15 17  1  0  0  0  0
 18 17  1  0  0  0  0
 19 16  1  1  0  0  0
 19 18  1  0  0  0  0
 20 21  1  0  0  0  0
 20  2  1  0  0  0  0
 22 20  1  0  0  0  0
 23  1  1  0  0  0  0
 23 25  1  0  0  0  0
 24 25  1  0  0  0  0
 26 27  1  0  0  0  0
 27 28  1  0  0  0  0
M  END
>  <MODEL>
7

>  <REMARK>
  Name = ZINC39051843
                            x       y       z     vdW  Elec       q    Type
                         _______ _______ _______ _____ _____    ______ ____

>  <TORSDO>
F 7

>  <minimizedAffinity>
-6.7658256300960016

$$$$
ZINC39051843
 OpenBabel10211216043D

 28 30  0  0  1  0  0  0  0  0999 V2000
   47.9300   57.1690   17.0250 N   0  0  0  0  0  0  0  0  0  0  0  0
   47.2650   58.3450   17.2830 C   0  0  0  0  0  0  0  0  0  0  0  0
   47.2040   58.8140   18.5800 C   0  0  0  0  0  0  0  0  0  0  0  0
   47.8280   58.0730   19.6000 C   0  0  0  0  0  0  0  0  0  0  0  0
   48.4660   56.9260   19.2930 N   0  0  0  0  0  0  0  0  0  0  0  0
   47.7890   58.4630   20.7550 O   0  0  0  0  0  0  0  0  0  0  0  0
   48.5100   56.4810   18.0240 C   0  0  0  0  0  0  0  0  0  0  0  0
   49.0900   55.4420   17.7770 O   0  0  0  0  0  0  0  0  0  0  0  0
   46.5310   60.0170   18.8760 N   0  0  0  0  0  0  0  0  0  0  0  0
   45.6410   59.9930   19.2620 H   0  0  0  0  0  0  0  0  0  0  0  0
   47.1250   61.2030   18.6250 C   0  0  0  0  0  0  0  0  0  0  0  0
   48.2010   61.2360   18.0640 O   0  0  0  0  0  0  0  0  0  0  0  0
   46.4520   62.4860   19.0380 C   0  0  2  0  0  0  0  0  0  0  0  0
   45.0090   62.2100   19.5300 C   0  0  0  0  0  0  0  0  0  0  0  0
   44.1180   63.0160   18.5310 C   0  0  1  0  0  0  0  0  0  0  0  0
   45.0250   64.2790   18.2960 C   0  0  0  0  0  0  0  0  0  0  0  0
   44.3010   62.2840   17.1960 C   0  0  0  0  0  0  0  0  0  0  0  0
   45.5510   62.5360   16.7700 C   0  0  0  0  0  0  0  0  0  0  0  0
   46.2520   63.4240   17.8050 C   0  0  2  0  0  0  0  0  0  0  0  0
   46.6670   59.0450   16.2620 N   0  0  0  0  0  0  0  0  0  0  0  0
   47.1800   59.6900   15.7510 H   0  0  0  0  0  0  0  0  0  0  0  0
   45.7320   58.8930   16.0540 H   0  0  0  0  0  0  0  0  0  0  0  0
   48.0020   56.6590   15.6530 C   0  0  0  0  0  0  0  0  0  0  0  0
   46.0510   56.1830   14.1670 C   0  0  0  0  0  0  0  0  0  0  0  0
   46.8270   55.7130   15.3990 C   0  0  0  0  0  0  0  0  0  0  0  0
   49.1160   56.1530   20.3540 C   0  0  0  0  0  0  0  0  0  0  0  0
   50.5410   56.6700   20.5620 C   0  0  0  0  0  0  0  0  0  0  0  0
   50.7770   56.9290   22.0510 C   0  0  0  0  0  0  0  0  0  0  0  0
  1  2  1  0  0  0  0
  1  7  1  0  0  0  0
  2  3  2  0  0  0  0
  3  9  1  0  0  0  0
  3  4  1  0  0  0  0
  4  6  2  0  0  0  0
  5  4  1  0  0  0  0
  5 26  1  0  0  0  0
  7  5  1  0  0  0  0
  8  7  2  0  0  0  0
  9 10  1  0  0  0  0
 11  9  1  0  0  0  0
 12 11  2  0  0  0  0
 13 11  1  6  0  0  0
 13 14  1  0  0  0  0
 15 17  1  6  0  0  0
 15 14  1  0  0  0  0
 16 15  1  0  0  0  0
 18 17  1  0  0  0  0
 19 18  1  1  0  0  0
 19 16  1  0  0  0  0
 19 13  1  0  0  0  0
 20  2  1  0  0  0  0
 21 20  1  0  0  0  0
 22 20  1  0  0  0  0
 23  1  1  0  0  0  0
 24 25  1  0  0  0  0
 25 23  1  0  0  0  0
 26 27  1  0  0  0  0
 27 28  1  0  0  0  0
M  END
>  <MODEL>
8

>  <REMARK>
  Name = ZINC39051843
                            x       y       z     vdW  Elec       q    Type
                         _______ _______ _______ _____ _____    ______ ____

>  <TORSDO>
F 7

>  <minimizedAffinity>
-6.5805891937736796

$$$$
ZINC39051843
 OpenBabel10211216043D

 28 30  0  0  1  0  0  0  0  0999 V2000
   49.3440   51.7590   17.2880 N   0  0  0  0  0  0  0  0  0  0  0  0
   49.1600   53.0290   17.7850 C   0  0  0  0  0  0  0  0  0  0  0  0
   49.8180   53.4020   18.9400 C   0  0  0  0  0  0  0  0  0  0  0  0
   50.6600   52.4690   19.5740 C   0  0  0  0  0  0  0  0  0  0  0  0
   50.8050   51.2380   19.0450 N   0  0  0  0  0  0  0  0  0  0  0  0
   51.2520   52.7720   20.5950 O   0  0  0  0  0  0  0  0  0  0  0  0
   50.1510   50.8900   17.9220 C   0  0  0  0  0  0  0  0  0  0  0  0
   50.2970   49.7710   17.4690 O   0  0  0  0  0  0  0  0  0  0  0  0
   49.6510   54.6960   19.4740 N   0  0  0  0  0  0  0  0  0  0  0  0
   48.8270   54.9300   19.9310 H   0  0  0  0  0  0  0  0  0  0  0  0
   50.6370   55.6090   19.3510 C   0  0  0  0  0  0  0  0  0  0  0  0
   51.6310   55.3450   18.7060 O   0  0  0  0  0  0  0  0  0  0  0  0
   50.5040   56.9570   20.0120 C   0  0  2  0  0  0  0  0  0  0  0  0
   51.8980   57.5920   20.2380 C   0  0  0  0  0  0  0  0  0  0  0  0
   51.9860   57.7450   21.7910 C   0  0  1  0  0  0  0  0  0  0  0  0
   50.4930   58.1120   22.1250 C   0  0  0  0  0  0  0  0  0  0  0  0
   52.0440   56.3020   22.3040 C   0  0  0  0  0  0  0  0  0  0  0  0
   50.8280   55.7600   22.1130 C   0  0  0  0  0  0  0  0  0  0  0  0
   49.9230   56.8070   21.4540 C   0  0  2  0  0  0  0  0  0  0  0  0
   48.3310   53.9150   17.1410 N   0  0  0  0  0  0  0  0  0  0  0  0
   47.9500   54.6630   17.6250 H   0  0  0  0  0  0  0  0  0  0  0  0
   48.1280   53.7910   16.2000 H   0  0  0  0  0  0  0  0  0  0  0  0
   48.6510   51.3490   16.0640 C   0  0  0  0  0  0  0  0  0  0  0  0
   47.3310   49.2700   15.6470 C   0  0  0  0  0  0  0  0  0  0  0  0
   47.3780   50.5840   16.4290 C   0  0  0  0  0  0  0  0  0  0  0  0
   51.6810   50.2650   19.7030 C   0  0  0  0  0  0  0  0  0  0  0  0
   50.9990   49.7380   20.9670 C   0  0  0  0  0  0  0  0  0  0  0  0
   50.3370   48.3930   20.6670 C   0  0  0  0  0  0  0  0  0  0  0  0
  1  2  1  0  0  0  0
  1  7  1  0  0  0  0
  2  3  2  0  0  0  0
  3  9  1  0  0  0  0
  3  4  1  0  0  0  0
  4  6  2  0  0  0  0
  5  4  1  0  0  0  0
  5 26  1  0  0  0  0
  7  5  1  0  0  0  0
  8  7  2  0  0  0  0
  9 10  1  0  0  0  0
 11  9  1  0  0  0  0
 12 11  2  0  0  0  0
 13 11  1  1  0  0  0
 13 14  1  0  0  0  0
 13 19  1  0  0  0  0
 15 14  1  6  0  0  0
 15 16  1  0  0  0  0
 15 17  1  0  0  0  0
 18 17  1  0  0  0  0
 19 18  1  6  0  0  0
 19 16  1  0  0  0  0
 20 21  1  0  0  0  0
 20  2  1  0  0  0  0
 22 20  1  0  0  0  0
 23 25  1  0  0  0  0
 23  1  1  0  0  0  0
 24 25  1  0  0  0  0
 26 27  1  0  0  0  0
 28 27  1  0  0  0  0
M  END
>  <MODEL>
9

>  <REMARK>
  Name = ZINC39051843
                            x       y       z     vdW  Elec       q    Type
                         _______ _______ _______ _____ _____    ______ ____

>  <TORSDO>
F 7

>  <minimizedAffinity>
-6.5572308555156944

$$$$
ZINC67103911
 OpenBabel10211216053D

 27 28  0  0  0  0  0  0  0  0999 V2000
   49.1390   54.4790   19.4140 N   0  0  0  0  0  0  0  0  0  0  0  0
   48.3850   54.7390   18.8610 H   0  0  0  0  0  0  0  0  0  0  0  0
   49.8060   53.3380   19.1520 C   0  0  0  0  0  0  0  0  0  0  0  0
   49.4940   52.6100   18.0610 N   0  0  0  0  0  0  0  0  0  0  0  0
   48.5150   53.1060   17.0860 C   0  0  0  0  0  0  0  0  0  0  0  0
   47.4380   52.0360   16.8810 C   0  0  0  0  0  0  0  0  0  0  0  0
   48.1040   50.7160   16.4880 C   0  0  0  0  0  0  0  0  0  0  0  0
   49.0330   50.2560   17.6130 C   0  0  0  0  0  0  0  0  0  0  0  0
   50.1330   51.3080   17.8230 C   0  0  0  0  0  0  0  0  0  0  0  0
   50.6890   52.9650   19.9000 O   0  0  0  0  0  0  0  0  0  0  0  0
   49.2050   56.5980   20.4970 C   0  0  0  0  0  0  0  0  0  0  0  0
   49.5330   55.2900   20.4860 N   0  0  0  0  0  0  0  0  0  0  0  0
   50.0420   54.9120   21.2200 H   0  0  0  0  0  0  0  0  0  0  0  0
   48.5690   57.0720   19.5800 O   0  0  0  0  0  0  0  0  0  0  0  0
   49.6290   57.4710   21.6500 C   0  0  0  0  0  0  0  0  0  0  0  0
   51.0750   57.1480   22.0290 C   0  0  0  0  0  0  0  0  0  0  0  0
   52.9130   58.8170   21.7400 C   0  0  0  0  0  0  0  0  0  0  0  0
   52.0240   57.8000   21.0200 C   0  0  0  0  0  0  0  0  0  0  0  0
   52.8990   56.7250   20.3740 C   0  0  0  0  0  0  0  0  0  0  0  0
   47.0740   49.6980   16.2590 N   0  0  0  0  0  0  0  0  0  0  0  0
   46.2750   49.6860   16.8100 H   0  0  0  0  0  0  0  0  0  0  0  0
   47.2370   48.7820   15.2850 C   0  0  0  0  0  0  0  0  0  0  0  0
   48.2360   48.7990   14.5970 O   0  0  0  0  0  0  0  0  0  0  0  0
   46.1770   47.7360   15.0500 C   0  0  0  0  0  0  0  0  0  0  0  0
   45.3970   47.9340   13.7390 C   0  0  0  0  0  0  0  0  0  0  0  0
   44.1360   47.5300   14.5200 C   0  0  0  0  0  0  0  0  0  0  0  0
   44.8580   48.0230   15.7860 C   0  0  0  0  0  0  0  0  0  0  0  0
  1 12  1  0  0  0  0
  2  1  1  0  0  0  0
  3  1  1  0  0  0  0
  3 10  2  0  0  0  0
  4  3  1  0  0  0  0
  5  4  1  0  0  0  0
  6  5  1  0  0  0  0
  7  6  1  0  0  0  0
  7  8  1  0  0  0  0
  8  9  1  0  0  0  0
  9  4  1  0  0  0  0
 11 15  1  0  0  0  0
 12 11  1  0  0  0  0
 12 13  1  0  0  0  0
 14 11  2  0  0  0  0
 15 16  1  0  0  0  0
 18 17  1  0  0  0  0
 18 16  1  0  0  0  0
 19 18  1  0  0  0  0
 20  7  1  0  0  0  0
 20 21  1  0  0  0  0
 22 20  1  0  0  0  0
 23 22  2  0  0  0  0
 24 22  1  0  0  0  0
 24 27  1  0  0  0  0
 25 26  1  0  0  0  0
 25 24  1  0  0  0  0
 26 27  1  0  0  0  0
M  END
>  <MODEL>
1

>  <REMARK>
  Name = ZINC67103911
                            x       y       z     vdW  Elec       q    Type
                         _______ _______ _______ _____ _____    ______ ____

>  <TORSDO>
F 6

>  <minimizedAffinity>
-7.8203854491049469

$$$$
ZINC67103911
 OpenBabel10211216053D

 27 28  0  0  0  0  0  0  0  0999 V2000
   50.6120   53.3340   20.1140 N   0  0  0  0  0  0  0  0  0  0  0  0
   50.3260   53.6100   19.2290 H   0  0  0  0  0  0  0  0  0  0  0  0
   50.7250   52.0240   20.4070 C   0  0  0  0  0  0  0  0  0  0  0  0
   50.5420   51.0990   19.4440 N   0  0  0  0  0  0  0  0  0  0  0  0
   50.3380   51.5040   18.0470 C   0  0  0  0  0  0  0  0  0  0  0  0
   49.0530   50.8530   17.5270 C   0  0  0  0  0  0  0  0  0  0  0  0
   49.1310   49.3400   17.7380 C   0  0  0  0  0  0  0  0  0  0  0  0
   49.2560   49.0360   19.2320 C   0  0  0  0  0  0  0  0  0  0  0  0
   50.5490   49.6670   19.7710 C   0  0  0  0  0  0  0  0  0  0  0  0
   50.9910   51.6760   21.5420 O   0  0  0  0  0  0  0  0  0  0  0  0
   51.6010   55.4030   20.7520 C   0  0  0  0  0  0  0  0  0  0  0  0
   50.9060   54.2980   21.0870 N   0  0  0  0  0  0  0  0  0  0  0  0
   50.6110   54.1700   22.0020 H   0  0  0  0  0  0  0  0  0  0  0  0
   51.9710   55.5640   19.6090 O   0  0  0  0  0  0  0  0  0  0  0  0
   51.9180   56.4400   21.8000 C   0  0  0  0  0  0  0  0  0  0  0  0
   51.1860   57.7410   21.4660 C   0  0  0  0  0  0  0  0  0  0  0  0
   48.9970   58.5310   22.3780 C   0  0  0  0  0  0  0  0  0  0  0  0
   49.6760   57.4950   21.4800 C   0  0  0  0  0  0  0  0  0  0  0  0
   49.1260   57.6150   20.0570 C   0  0  0  0  0  0  0  0  0  0  0  0
   47.9170   48.7100   17.2120 N   0  0  0  0  0  0  0  0  0  0  0  0
   47.1180   48.6660   17.7600 H   0  0  0  0  0  0  0  0  0  0  0  0
   47.9110   48.1930   15.9670 C   0  0  0  0  0  0  0  0  0  0  0  0
   48.9090   48.2500   15.2820 O   0  0  0  0  0  0  0  0  0  0  0  0
   46.6610   47.5470   15.4270 C   0  0  0  0  0  0  0  0  0  0  0  0
   46.2330   48.0870   14.0520 C   0  0  0  0  0  0  0  0  0  0  0  0
   44.7840   48.0220   14.5640 C   0  0  0  0  0  0  0  0  0  0  0  0
   45.3630   48.1570   15.9820 C   0  0  0  0  0  0  0  0  0  0  0  0
  1  3  1  0  0  0  0
  1 12  1  0  0  0  0
  2  1  1  0  0  0  0
  3 10  2  0  0  0  0
  4  9  1  0  0  0  0
  4  3  1  0  0  0  0
  5  4  1  0  0  0  0
  6  7  1  0  0  0  0
  6  5  1  0  0  0  0
  7  8  1  0  0  0  0
  8  9  1  0  0  0  0
 11 12  1  0  0  0  0
 11 15  1  0  0  0  0
 12 13  1  0  0  0  0
 14 11  2  0  0  0  0
 16 18  1  0  0  0  0
 16 15  1  0  0  0  0
 18 17  1  0  0  0  0
 19 18  1  0  0  0  0
 20  7  1  0  0  0  0
 20 21  1  0  0  0  0
 22 20  1  0  0  0  0
 23 22  2  0  0  0  0
 24 22  1  0  0  0  0
 24 27  1  0  0  0  0
 25 26  1  0  0  0  0
 25 24  1  0  0  0  0
 26 27  1  0  0  0  0
M  END
>  <MODEL>
2

>  <REMARK>
  Name = ZINC67103911
                            x       y       z     vdW  Elec       q    Type
                         _______ _______ _______ _____ _____    ______ ____

>  <TORSDO>
F 6

>  <minimizedAffinity>
-7.7559075304683862

$$$$
ZINC67103911
 OpenBabel10211216053D

 27 28  0  0  0  0  0  0  0  0999 V2000
   51.1070   52.5810   19.9990 N   0  0  0  0  0  0  0  0  0  0  0  0
   50.8940   52.9820   19.1420 H   0  0  0  0  0  0  0  0  0  0  0  0
   50.8610   51.2730   20.2110 C   0  0  0  0  0  0  0  0  0  0  0  0
   50.4150   50.4990   19.2020 N   0  0  0  0  0  0  0  0  0  0  0  0
   50.3070   51.0350   17.8390 C   0  0  0  0  0  0  0  0  0  0  0  0
   48.8830   50.7950   17.3270 C   0  0  0  0  0  0  0  0  0  0  0  0
   48.5460   49.3080   17.4460 C   0  0  0  0  0  0  0  0  0  0  0  0
   48.6080   48.8840   18.9140 C   0  0  0  0  0  0  0  0  0  0  0  0
   50.0340   49.1010   19.4440 C   0  0  0  0  0  0  0  0  0  0  0  0
   51.0410   50.7920   21.3130 O   0  0  0  0  0  0  0  0  0  0  0  0
   51.0770   54.5120   21.3900 C   0  0  0  0  0  0  0  0  0  0  0  0
   51.6710   53.3620   21.0160 N   0  0  0  0  0  0  0  0  0  0  0  0
   52.4900   53.0750   21.4510 H   0  0  0  0  0  0  0  0  0  0  0  0
   50.0550   54.8720   20.8470 O   0  0  0  0  0  0  0  0  0  0  0  0
   51.6840   55.3530   22.4850 C   0  0  0  0  0  0  0  0  0  0  0  0
   51.5570   56.8330   22.1190 C   0  0  0  0  0  0  0  0  0  0  0  0
   53.3270   56.9590   20.3580 C   0  0  0  0  0  0  0  0  0  0  0  0
   52.9390   57.3930   21.7730 C   0  0  0  0  0  0  0  0  0  0  0  0
   52.9030   58.9210   21.8470 C   0  0  0  0  0  0  0  0  0  0  0  0
   47.1970   49.0690   16.9260 N   0  0  0  0  0  0  0  0  0  0  0  0
   46.4240   49.2650   17.4780 H   0  0  0  0  0  0  0  0  0  0  0  0
   47.0310   48.5790   15.6820 C   0  0  0  0  0  0  0  0  0  0  0  0
   47.9980   48.3350   14.9920 O   0  0  0  0  0  0  0  0  0  0  0  0
   45.6430   48.3350   15.1480 C   0  0  0  0  0  0  0  0  0  0  0  0
   44.6250   47.9470   16.2340 C   0  0  0  0  0  0  0  0  0  0  0  0
   44.0550   46.9340   15.2270 C   0  0  0  0  0  0  0  0  0  0  0  0
   45.4450   46.9230   14.5710 C   0  0  0  0  0  0  0  0  0  0  0  0
  1  3  1  0  0  0  0
  1 12  1  0  0  0  0
  2  1  1  0  0  0  0
  3 10  2  0  0  0  0
  4  9  1  0  0  0  0
  4  3  1  0  0  0  0
  5  4  1  0  0  0  0
  6  7  1  0  0  0  0
  6  5  1  0  0  0  0
  7  8  1  0  0  0  0
  8  9  1  0  0  0  0
 11 15  1  0  0  0  0
 12 11  1  0  0  0  0
 12 13  1  0  0  0  0
 14 11  2  0  0  0  0
 16 15  1  0  0  0  0
 17 18  1  0  0  0  0
 18 19  1  0  0  0  0
 18 16  1  0  0  0  0
 20  7  1  0  0  0  0
 20 21  1  0  0  0  0
 22 20  1  0  0  0  0
 23 22  2  0  0  0  0
 24 22  1  0  0  0  0
 24 25  1  0  0  0  0
 26 25  1  0  0  0  0
 27 24  1  0  0  0  0
 27 26  1  0  0  0  0
M  END
>  <MODEL>
3

>  <REMARK>
  Name = ZINC67103911
                            x       y       z     vdW  Elec       q    Type
                         _______ _______ _______ _____ _____    ______ ____

>  <TORSDO>
F 6

>  <minimizedAffinity>
-7.7448950085767443

$$$$
ZINC67103911
 OpenBabel10211216053D

 27 28  0  0  0  0  0  0  0  0999 V2000
   48.6450   53.7260   18.1720 N   0  0  0  0  0  0  0  0  0  0  0  0
   48.8780   53.9770   19.0800 H   0  0  0  0  0  0  0  0  0  0  0  0
   48.3990   54.6800   17.2520 C   0  0  0  0  0  0  0  0  0  0  0  0
   48.5740   55.9790   17.5640 N   0  0  0  0  0  0  0  0  0  0  0  0
   49.1480   56.3660   18.8590 C   0  0  0  0  0  0  0  0  0  0  0  0
   48.2020   57.3600   19.5390 C   0  0  0  0  0  0  0  0  0  0  0  0
   47.9340   58.5340   18.5940 C   0  0  0  0  0  0  0  0  0  0  0  0
   47.2610   58.0210   17.3200 C   0  0  0  0  0  0  0  0  0  0  0  0
   48.2020   57.0330   16.6120 C   0  0  0  0  0  0  0  0  0  0  0  0
   48.0170   54.3660   16.1410 O   0  0  0  0  0  0  0  0  0  0  0  0
   49.6290   51.5650   18.0030 C   0  0  0  0  0  0  0  0  0  0  0  0
   48.5660   52.3730   17.8170 N   0  0  0  0  0  0  0  0  0  0  0  0
   47.7470   52.0180   17.4370 H   0  0  0  0  0  0  0  0  0  0  0  0
   50.6530   52.0080   18.4770 O   0  0  0  0  0  0  0  0  0  0  0  0
   49.5440   50.1090   17.6210 C   0  0  0  0  0  0  0  0  0  0  0  0
   48.8820   49.3230   18.7550 C   0  0  0  0  0  0  0  0  0  0  0  0
   46.5970   49.2840   17.7420 C   0  0  0  0  0  0  0  0  0  0  0  0
   47.7850   48.4240   18.1790 C   0  0  0  0  0  0  0  0  0  0  0  0
   48.3330   47.6590   16.9730 C   0  0  0  0  0  0  0  0  0  0  0  0
   47.0560   59.5030   19.2540 N   0  0  0  0  0  0  0  0  0  0  0  0
   46.4110   59.2020   19.9140 H   0  0  0  0  0  0  0  0  0  0  0  0
   47.1440   60.8120   18.9450 C   0  0  0  0  0  0  0  0  0  0  0  0
   47.9510   61.1880   18.1220 O   0  0  0  0  0  0  0  0  0  0  0  0
   46.2410   61.8080   19.6260 C   0  0  0  0  0  0  0  0  0  0  0  0
   44.7740   61.7200   19.1700 C   0  0  0  0  0  0  0  0  0  0  0  0
   44.7530   63.2580   19.2070 C   0  0  0  0  0  0  0  0  0  0  0  0
   46.2730   63.2050   18.9850 C   0  0  0  0  0  0  0  0  0  0  0  0
  1  2  1  0  0  0  0
  3  4  1  0  0  0  0
  3  1  1  0  0  0  0
  4  5  1  0  0  0  0
  5  6  1  0  0  0  0
  7 20  1  0  0  0  0
  7  6  1  0  0  0  0
  8  7  1  0  0  0  0
  9  8  1  0  0  0  0
  9  4  1  0  0  0  0
 10  3  2  0  0  0  0
 11 14  2  0  0  0  0
 12 11  1  0  0  0  0
 12  1  1  0  0  0  0
 13 12  1  0  0  0  0
 15 11  1  0  0  0  0
 15 16  1  0  0  0  0
 17 18  1  0  0  0  0
 18 16  1  0  0  0  0
 19 18  1  0  0  0  0
 20 21  1  0  0  0  0
 22 20  1  0  0  0  0
 22 24  1  0  0  0  0
 23 22  2  0  0  0  0
 25 26  1  0  0  0  0
 25 24  1  0  0  0  0
 27 26  1  0  0  0  0
 27 24  1  0  0  0  0
M  END
>  <MODEL>
4

>  <REMARK>
  Name = ZINC67103911
                            x       y       z     vdW  Elec       q    Type
                         _______ _______ _______ _____ _____    ______ ____

>  <TORSDO>
F 6

>  <minimizedAffinity>
-7.7042369219157365

$$$$
ZINC67103911
 OpenBabel10211216053D

 27 28  0  0  0  0  0  0  0  0999 V2000
   49.4740   49.2850   18.0120 N   0  0  0  0  0  0  0  0  0  0  0  0
   50.3970   49.1390   18.2750 H   0  0  0  0  0  0  0  0  0  0  0  0
   49.0250   50.5380   17.7970 C   0  0  0  0  0  0  0  0  0  0  0  0
   49.8810   51.5780   17.8440 N   0  0  0  0  0  0  0  0  0  0  0  0
   51.3220   51.3540   18.0090 C   0  0  0  0  0  0  0  0  0  0  0  0
   51.8160   52.1800   19.2010 C   0  0  0  0  0  0  0  0  0  0  0  0
   51.4270   53.6460   18.9970 C   0  0  0  0  0  0  0  0  0  0  0  0
   49.9030   53.7660   18.9240 C   0  0  0  0  0  0  0  0  0  0  0  0
   49.3880   52.9570   17.7240 C   0  0  0  0  0  0  0  0  0  0  0  0
   47.8470   50.7280   17.5600 O   0  0  0  0  0  0  0  0  0  0  0  0
   48.4640   47.6140   16.6510 C   0  0  0  0  0  0  0  0  0  0  0  0
   48.6090   48.1950   17.8590 N   0  0  0  0  0  0  0  0  0  0  0  0
   48.1130   47.8570   18.6210 H   0  0  0  0  0  0  0  0  0  0  0  0
   49.0830   48.0360   15.6970 O   0  0  0  0  0  0  0  0  0  0  0  0
   47.5320   46.4400   16.4850 C   0  0  0  0  0  0  0  0  0  0  0  0
   46.1940   46.7550   17.1560 C   0  0  0  0  0  0  0  0  0  0  0  0
   44.2720   47.2280   15.6300 C   0  0  0  0  0  0  0  0  0  0  0  0
   45.4680   47.8420   16.3600 C   0  0  0  0  0  0  0  0  0  0  0  0
   44.9780   48.9320   17.3150 C   0  0  0  0  0  0  0  0  0  0  0  0
   51.9260   54.4450   20.1190 N   0  0  0  0  0  0  0  0  0  0  0  0
   52.0370   54.0370   20.9920 H   0  0  0  0  0  0  0  0  0  0  0  0
   52.2320   55.7450   19.9380 C   0  0  0  0  0  0  0  0  0  0  0  0
   52.0930   56.2540   18.8460 O   0  0  0  0  0  0  0  0  0  0  0  0
   52.7460   56.5650   21.0930 C   0  0  0  0  0  0  0  0  0  0  0  0
   51.8400   57.7540   21.4550 C   0  0  0  0  0  0  0  0  0  0  0  0
   53.1260   58.5690   21.6680 C   0  0  0  0  0  0  0  0  0  0  0  0
   53.8080   57.6010   20.6860 C   0  0  0  0  0  0  0  0  0  0  0  0
  1  2  1  0  0  0  0
  3  4  1  0  0  0  0
  3  1  1  0  0  0  0
  4  5  1  0  0  0  0
  5  6  1  0  0  0  0
  7  6  1  0  0  0  0
  7 20  1  0  0  0  0
  8  7  1  0  0  0  0
  9  4  1  0  0  0  0
  9  8  1  0  0  0  0
 10  3  2  0  0  0  0
 11 12  1  0  0  0  0
 12  1  1  0  0  0  0
 12 13  1  0  0  0  0
 14 11  2  0  0  0  0
 15 11  1  0  0  0  0
 15 16  1  0  0  0  0
 17 18  1  0  0  0  0
 18 16  1  0  0  0  0
 18 19  1  0  0  0  0
 20 21  1  0  0  0  0
 22 20  1  0  0  0  0
 22 24  1  0  0  0  0
 23 22  2  0  0  0  0
 24 25  1  0  0  0  0
 25 26  1  0  0  0  0
 27 24  1  0  0  0  0
 27 26  1  0  0  0  0
M  END
>  <MODEL>
5

>  <REMARK>
  Name = ZINC67103911
                            x       y       z     vdW  Elec       q    Type
                         _______ _______ _______ _____ _____    ______ ____

>  <TORSDO>
F 6

>  <minimizedAffinity>
-7.4816929812422259

$$$$
ZINC67103911
 OpenBabel10211216053D

 27 28  0  0  0  0  0  0  0  0999 V2000
   47.6350   58.3970   19.2260 N   0  0  0  0  0  0  0  0  0  0  0  0
   47.5150   58.1360   18.2990 H   0  0  0  0  0  0  0  0  0  0  0  0
   48.4140   57.6560   20.0390 C   0  0  0  0  0  0  0  0  0  0  0  0
   49.1080   56.6130   19.5410 N   0  0  0  0  0  0  0  0  0  0  0  0
   49.1220   56.3440   18.0980 C   0  0  0  0  0  0  0  0  0  0  0  0
   48.6980   54.8910   17.8630 C   0  0  0  0  0  0  0  0  0  0  0  0
   49.5950   53.9630   18.6840 C   0  0  0  0  0  0  0  0  0  0  0  0
   49.4330   54.2790   20.1720 C   0  0  0  0  0  0  0  0  0  0  0  0
   49.8690   55.7280   20.4330 C   0  0  0  0  0  0  0  0  0  0  0  0
   48.4890   57.9280   21.2220 O   0  0  0  0  0  0  0  0  0  0  0  0
   47.0940   60.7080   19.0480 C   0  0  0  0  0  0  0  0  0  0  0  0
   46.9980   59.5430   19.7190 N   0  0  0  0  0  0  0  0  0  0  0  0
   46.4890   59.4990   20.5430 H   0  0  0  0  0  0  0  0  0  0  0  0
   47.7310   60.7650   18.0180 O   0  0  0  0  0  0  0  0  0  0  0  0
   46.4090   61.9420   19.5790 C   0  0  0  0  0  0  0  0  0  0  0  0
   44.9410   61.9330   19.1490 C   0  0  0  0  0  0  0  0  0  0  0  0
   44.4900   64.2640   18.3680 C   0  0  0  0  0  0  0  0  0  0  0  0
   44.2940   63.2710   19.5160 C   0  0  0  0  0  0  0  0  0  0  0  0
   42.7990   63.0640   19.7610 C   0  0  0  0  0  0  0  0  0  0  0  0
   49.2140   52.5700   18.4370 N   0  0  0  0  0  0  0  0  0  0  0  0
   48.2780   52.3150   18.4480 H   0  0  0  0  0  0  0  0  0  0  0  0
   50.1630   51.6450   18.1920 C   0  0  0  0  0  0  0  0  0  0  0  0
   51.3330   51.9650   18.1770 O   0  0  0  0  0  0  0  0  0  0  0  0
   49.7700   50.2120   17.9360 C   0  0  0  0  0  0  0  0  0  0  0  0
   48.2550   50.0120   17.7620 C   0  0  0  0  0  0  0  0  0  0  0  0
   48.4100   48.7220   18.5850 C   0  0  0  0  0  0  0  0  0  0  0  0
   49.6540   49.3690   19.2170 C   0  0  0  0  0  0  0  0  0  0  0  0
  1 12  1  0  0  0  0
  1  3  1  0  0  0  0
  2  1  1  0  0  0  0
  3 10  2  0  0  0  0
  4  3  1  0  0  0  0
  4  9  1  0  0  0  0
  5  4  1  0  0  0  0
  6  5  1  0  0  0  0
  6  7  1  0  0  0  0
  7  8  1  0  0  0  0
  8  9  1  0  0  0  0
 11 15  1  0  0  0  0
 11 12  1  0  0  0  0
 12 13  1  0  0  0  0
 14 11  2  0  0  0  0
 16 18  1  0  0  0  0
 16 15  1  0  0  0  0
 17 18  1  0  0  0  0
 18 19  1  0  0  0  0
 20 21  1  0  0  0  0
 20  7  1  0  0  0  0
 22 20  1  0  0  0  0
 23 22  2  0  0  0  0
 24 22  1  0  0  0  0
 24 27  1  0  0  0  0
 25 24  1  0  0  0  0
 25 26  1  0  0  0  0
 26 27  1  0  0  0  0
M  END
>  <MODEL>
6

>  <REMARK>
  Name = ZINC67103911
                            x       y       z     vdW  Elec       q    Type
                         _______ _______ _______ _____ _____    ______ ____

>  <TORSDO>
F 6

>  <minimizedAffinity>
-7.4709190571419031

$$$$
ZINC67103911
 OpenBabel10211216053D

 27 28  0  0  0  0  0  0  0  0999 V2000
   50.0080   53.3160   18.5290 N   0  0  0  0  0  0  0  0  0  0  0  0
   49.6330   53.5710   17.6710 H   0  0  0  0  0  0  0  0  0  0  0  0
   50.0240   52.0200   18.8990 C   0  0  0  0  0  0  0  0  0  0  0  0
   49.6140   51.0680   18.0380 N   0  0  0  0  0  0  0  0  0  0  0  0
   49.2620   51.4120   16.6540 C   0  0  0  0  0  0  0  0  0  0  0  0
   47.8570   50.8810   16.3570 C   0  0  0  0  0  0  0  0  0  0  0  0
   47.8050   49.3830   16.6650 C   0  0  0  0  0  0  0  0  0  0  0  0
   48.1040   49.1550   18.1480 C   0  0  0  0  0  0  0  0  0  0  0  0
   49.5180   49.6650   18.4650 C   0  0  0  0  0  0  0  0  0  0  0  0
   50.4070   51.7110   20.0110 O   0  0  0  0  0  0  0  0  0  0  0  0
   51.8410   54.6160   19.3150 C   0  0  0  0  0  0  0  0  0  0  0  0
   50.5330   54.2950   19.3820 N   0  0  0  0  0  0  0  0  0  0  0  0
   49.9560   54.7410   20.0220 H   0  0  0  0  0  0  0  0  0  0  0  0
   52.5630   54.0590   18.5170 O   0  0  0  0  0  0  0  0  0  0  0  0
   52.4050   55.6700   20.2350 C   0  0  0  0  0  0  0  0  0  0  0  0
   51.7700   55.5310   21.6190 C   0  0  0  0  0  0  0  0  0  0  0  0
   52.2220   57.9880   21.5580 C   0  0  0  0  0  0  0  0  0  0  0  0
   51.2900   56.9020   22.1000 C   0  0  0  0  0  0  0  0  0  0  0  0
   49.8680   57.1510   21.5940 C   0  0  0  0  0  0  0  0  0  0  0  0
   46.4720   48.8650   16.3500 N   0  0  0  0  0  0  0  0  0  0  0  0
   45.7880   48.8380   17.0380 H   0  0  0  0  0  0  0  0  0  0  0  0
   46.1950   48.4270   15.1060 C   0  0  0  0  0  0  0  0  0  0  0  0
   47.0500   48.4610   14.2470 O   0  0  0  0  0  0  0  0  0  0  0  0
   44.8220   47.8950   14.7830 C   0  0  0  0  0  0  0  0  0  0  0  0
   44.1600   47.1470   15.9530 C   0  0  0  0  0  0  0  0  0  0  0  0
   43.6490   46.1350   14.9150 C   0  0  0  0  0  0  0  0  0  0  0  0
   44.8430   46.5490   14.0390 C   0  0  0  0  0  0  0  0  0  0  0  0
  1  3  1  0  0  0  0
  1 12  1  0  0  0  0
  2  1  1  0  0  0  0
  3 10  2  0  0  0  0
  4  9  1  0  0  0  0
  4  3  1  0  0  0  0
  5  4  1  0  0  0  0
  6  5  1  0  0  0  0
  6  7  1  0  0  0  0
  7  8  1  0  0  0  0
  8  9  1  0  0  0  0
 11 12  1  0  0  0  0
 11 15  1  0  0  0  0
 12 13  1  0  0  0  0
 14 11  2  0  0  0  0
 15 16  1  0  0  0  0
 16 18  1  0  0  0  0
 17 18  1  0  0  0  0
 19 18  1  0  0  0  0
 20  7  1  0  0  0  0
 20 21  1  0  0  0  0
 22 20  1  0  0  0  0
 23 22  2  0  0  0  0
 24 22  1  0  0  0  0
 24 25  1  0  0  0  0
 26 25  1  0  0  0  0
 27 24  1  0  0  0  0
 27 26  1  0  0  0  0
M  END
>  <MODEL>
7

>  <REMARK>
  Name = ZINC67103911
                            x       y       z     vdW  Elec       q    Type
                         _______ _______ _______ _____ _____    ______ ____

>  <TORSDO>
F 6

>  <minimizedAffinity>
-7.4182382950427384

$$$$
ZINC67103911
 OpenBabel10211216053D

 27 28  0  0  0  0  0  0  0  0999 V2000
   49.9870   49.9480   18.6110 N   0  0  0  0  0  0  0  0  0  0  0  0
   49.5310   50.0690   19.4600 H   0  0  0  0  0  0  0  0  0  0  0  0
   51.0300   50.7390   18.2890 C   0  0  0  0  0  0  0  0  0  0  0  0
   51.5040   51.6270   19.1840 N   0  0  0  0  0  0  0  0  0  0  0  0
   50.9770   51.6630   20.5540 C   0  0  0  0  0  0  0  0  0  0  0  0
   50.5250   53.0920   20.8710 C   0  0  0  0  0  0  0  0  0  0  0  0
   51.6840   54.0580   20.6180 C   0  0  0  0  0  0  0  0  0  0  0  0
   52.0900   53.9960   19.1440 C   0  0  0  0  0  0  0  0  0  0  0  0
   52.5640   52.5730   18.8090 C   0  0  0  0  0  0  0  0  0  0  0  0
   51.5410   50.6500   17.1890 O   0  0  0  0  0  0  0  0  0  0  0  0
   48.3080   48.4640   17.8100 C   0  0  0  0  0  0  0  0  0  0  0  0
   49.5610   48.9530   17.7230 N   0  0  0  0  0  0  0  0  0  0  0  0
   50.1670   48.6140   17.0460 H   0  0  0  0  0  0  0  0  0  0  0  0
   47.5490   48.8860   18.6560 O   0  0  0  0  0  0  0  0  0  0  0  0
   47.8490   47.3920   16.8540 C   0  0  0  0  0  0  0  0  0  0  0  0
   47.6370   48.0030   15.4680 C   0  0  0  0  0  0  0  0  0  0  0  0
   45.8480   48.0490   13.7220 C   0  0  0  0  0  0  0  0  0  0  0  0
   46.1390   48.1920   15.2180 C   0  0  0  0  0  0  0  0  0  0  0  0
   45.3550   47.1310   15.9940 C   0  0  0  0  0  0  0  0  0  0  0  0
   51.2650   55.4220   20.9510 N   0  0  0  0  0  0  0  0  0  0  0  0
   51.7060   55.9020   21.6700 H   0  0  0  0  0  0  0  0  0  0  0  0
   50.2700   56.0100   20.2570 C   0  0  0  0  0  0  0  0  0  0  0  0
   49.7210   55.4100   19.3580 O   0  0  0  0  0  0  0  0  0  0  0  0
   49.8410   57.4140   20.6000 C   0  0  0  0  0  0  0  0  0  0  0  0
   50.0540   57.7790   22.0790 C   0  0  0  0  0  0  0  0  0  0  0  0
   48.6990   58.5030   22.0140 C   0  0  0  0  0  0  0  0  0  0  0  0
   48.3320   57.5470   20.8660 C   0  0  0  0  0  0  0  0  0  0  0  0
  1  2  1  0  0  0  0
  3  1  1  0  0  0  0
  3  4  1  0  0  0  0
  4  5  1  0  0  0  0
  5  6  1  0  0  0  0
  7  6  1  0  0  0  0
  7 20  1  0  0  0  0
  8  7  1  0  0  0  0
  9  8  1  0  0  0  0
  9  4  1  0  0  0  0
 10  3  2  0  0  0  0
 11 14  2  0  0  0  0
 12 11  1  0  0  0  0
 12  1  1  0  0  0  0
 13 12  1  0  0  0  0
 15 11  1  0  0  0  0
 16 15  1  0  0  0  0
 17 18  1  0  0  0  0
 18 16  1  0  0  0  0
 18 19  1  0  0  0  0
 20 21  1  0  0  0  0
 22 24  1  0  0  0  0
 22 20  1  0  0  0  0
 23 22  2  0  0  0  0
 24 27  1  0  0  0  0
 24 25  1  0  0  0  0
 26 25  1  0  0  0  0
 27 26  1  0  0  0  0
M  END
>  <MODEL>
8

>  <REMARK>
  Name = ZINC67103911
                            x       y       z     vdW  Elec       q    Type
                         _______ _______ _______ _____ _____    ______ ____

>  <TORSDO>
F 6

>  <minimizedAffinity>
-7.4161704075943344

$$$$
ZINC67103911
 OpenBabel10211216053D

 27 28  0  0  0  0  0  0  0  0999 V2000
   49.9530   54.5230   20.6510 N   0  0  0  0  0  0  0  0  0  0  0  0
   49.9620   55.1070   21.4270 H   0  0  0  0  0  0  0  0  0  0  0  0
   49.6150   55.0140   19.4430 C   0  0  0  0  0  0  0  0  0  0  0  0
   49.3900   56.3340   19.2900 N   0  0  0  0  0  0  0  0  0  0  0  0
   49.6250   57.2660   20.4000 C   0  0  0  0  0  0  0  0  0  0  0  0
   48.3540   58.0890   20.6300 C   0  0  0  0  0  0  0  0  0  0  0  0
   47.9430   58.7630   19.3190 C   0  0  0  0  0  0  0  0  0  0  0  0
   47.6420   57.6950   18.2660 C   0  0  0  0  0  0  0  0  0  0  0  0
   48.9110   56.8670   18.0080 C   0  0  0  0  0  0  0  0  0  0  0  0
   49.5130   54.2650   18.4900 O   0  0  0  0  0  0  0  0  0  0  0  0
   51.4390   52.8230   21.4040 C   0  0  0  0  0  0  0  0  0  0  0  0
   50.2910   53.1710   20.7890 N   0  0  0  0  0  0  0  0  0  0  0  0
   49.7000   52.4850   20.4410 H   0  0  0  0  0  0  0  0  0  0  0  0
   52.1790   53.6790   21.8390 O   0  0  0  0  0  0  0  0  0  0  0  0
   51.8030   51.3670   21.5520 C   0  0  0  0  0  0  0  0  0  0  0  0
   50.7150   50.5030   20.9120 C   0  0  0  0  0  0  0  0  0  0  0  0
   50.9000   50.5830   18.4200 C   0  0  0  0  0  0  0  0  0  0  0  0
   51.2840   49.8000   19.6770 C   0  0  0  0  0  0  0  0  0  0  0  0
   52.8080   49.7280   19.7880 C   0  0  0  0  0  0  0  0  0  0  0  0
   46.7450   59.5780   19.5420 N   0  0  0  0  0  0  0  0  0  0  0  0
   46.0050   59.2190   20.0560 H   0  0  0  0  0  0  0  0  0  0  0  0
   46.6740   60.8240   19.0350 C   0  0  0  0  0  0  0  0  0  0  0  0
   47.6010   61.2720   18.3940 O   0  0  0  0  0  0  0  0  0  0  0  0
   45.4430   61.6620   19.2670 C   0  0  0  0  0  0  0  0  0  0  0  0
   44.9500   62.3940   18.0070 C   0  0  0  0  0  0  0  0  0  0  0  0
   44.6620   63.6000   18.9160 C   0  0  0  0  0  0  0  0  0  0  0  0
   45.7450   63.0490   19.8580 C   0  0  0  0  0  0  0  0  0  0  0  0
  1 12  1  0  0  0  0
  1  2  1  0  0  0  0
  3  1  1  0  0  0  0
  4  3  1  0  0  0  0
  4  5  1  0  0  0  0
  5  6  1  0  0  0  0
  7 20  1  0  0  0  0
  7  6  1  0  0  0  0
  8  7  1  0  0  0  0
  9  8  1  0  0  0  0
  9  4  1  0  0  0  0
 10  3  2  0  0  0  0
 11 15  1  0  0  0  0
 11 14  2  0  0  0  0
 12 11  1  0  0  0  0
 13 12  1  0  0  0  0
 16 15  1  0  0  0  0
 17 18  1  0  0  0  0
 18 19  1  0  0  0  0
 18 16  1  0  0  0  0
 20 21  1  0  0  0  0
 22 24  1  0  0  0  0
 22 20  1  0  0  0  0
 23 22  2  0  0  0  0
 24 27  1  0  0  0  0
 25 26  1  0  0  0  0
 25 24  1  0  0  0  0
 26 27  1  0  0  0  0
M  END
>  <MODEL>
9

>  <REMARK>
  Name = ZINC67103911
                            x       y       z     vdW  Elec       q    Type
                         _______ _______ _______ _____ _____    ______ ____

>  <TORSDO>
F 6

>  <minimizedAffinity>
-7.3423619281789207

$$$$
ZINC39662364
 OpenBabel10211216083D

 35 38  0  0  1  0  0  0  0  0999 V2000
   48.7400   55.4710   19.6330 C   0  0  1  0  0  0  0  0  0  0  0  0
   48.3680   54.0380   19.1910 C   0  0  0  0  0  0  0  0  0  0  0  0
   49.6690   53.3680   18.9580 N   0  0  0  0  0  0  0  0  0  0  0  0
   49.9880   52.5030   17.9750 C   0  0  0  0  0  0  0  0  0  0  0  0
   51.1060   52.0350   17.9190 O   0  0  0  0  0  0  0  0  0  0  0  0
   50.5390   53.8630   20.0510 C   0  0  0  0  0  0  0  0  0  0  0  0
   50.1640   55.3510   20.2010 C   0  0  0  0  0  0  0  0  0  0  0  0
   50.1830   55.7550   21.6710 C   0  0  0  0  0  0  0  0  0  0  0  0
   51.6190   55.6850   22.1980 C   0  0  0  0  0  0  0  0  0  0  0  0
   52.4750   56.5820   21.4120 N   0  0  0  0  0  0  0  0  0  0  0  0
   53.4070   56.5800   21.7990 H   0  0  0  0  0  0  0  0  0  0  0  0
   52.1010   57.5180   21.4490 H   0  0  0  0  0  0  0  0  0  0  0  0
   52.5250   56.1300   20.0170 C   0  0  0  0  0  0  0  0  0  0  0  0
   51.1280   56.2210   19.3980 C   0  0  0  0  0  0  0  0  0  0  0  0
   47.8200   57.4050   18.3970 N   0  0  0  0  0  0  0  0  0  0  0  0
   47.1820   57.5230   19.1180 H   0  0  0  0  0  0  0  0  0  0  0  0
   48.7230   56.4060   18.4510 C   0  0  0  0  0  0  0  0  0  0  0  0
   49.5200   56.2590   17.5500 O   0  0  0  0  0  0  0  0  0  0  0  0
   47.8030   58.3140   17.2490 C   0  0  1  0  0  0  0  0  0  0  0  0
   44.9080   56.9700   14.4100 C   0  0  0  0  0  0  0  0  0  0  0  0
   46.0840   56.2660   14.5830 C   0  0  0  0  0  0  0  0  0  0  0  0
   47.0210   56.7010   15.5010 C   0  0  0  0  0  0  0  0  0  0  0  0
   46.7820   57.8400   16.2470 C   0  0  0  0  0  0  0  0  0  0  0  0
   45.6050   58.5450   16.0730 C   0  0  0  0  0  0  0  0  0  0  0  0
   44.6680   58.1090   15.1550 C   0  0  0  0  0  0  0  0  0  0  0  0
   47.4530   59.6700   17.7020 C   0  0  0  0  0  0  0  0  0  0  0  0
   47.1830   60.7170   18.0510 N   0  0  0  0  0  0  0  0  0  0  0  0
   48.9570   52.1170   16.9460 C   0  0  0  0  0  0  0  0  0  0  0  0
   48.1650   50.9360   17.4460 C   0  0  0  0  0  0  0  0  0  0  0  0
   46.8390   50.7920   17.0830 C   0  0  0  0  0  0  0  0  0  0  0  0
   46.1110   49.7100   17.5400 C   0  0  0  0  0  0  0  0  0  0  0  0
   46.7100   48.7710   18.3610 C   0  0  0  0  0  0  0  0  0  0  0  0
   45.7960   47.4110   18.9350 Cl  0  0  0  0  0  0  0  0  0  0  0  0
   48.0380   48.9150   18.7230 C   0  0  0  0  0  0  0  0  0  0  0  0
   48.7660   49.9950   18.2600 C   0  0  0  0  0  0  0  0  0  0  0  0
  1 17  1  6  0  0  0
  1  7  1  0  0  0  0
  2  1  1  0  0  0  0
  3  2  1  0  0  0  0
  3  6  1  0  0  0  0
  4  3  1  0  0  0  0
  5  4  2  0  0  0  0
  6  7  1  0  0  0  0
  7  8  1  0  0  0  0
  8  9  1  0  0  0  0
 10 12  1  0  0  0  0
 10 11  1  0  0  0  0
 10  9  1  0  0  0  0
 13 10  1  0  0  0  0
 14 13  1  0  0  0  0
 14  7  1  0  0  0  0
 15 17  1  0  0  0  0
 15 16  1  0  0  0  0
 18 17  2  0  0  0  0
 19 23  1  1  0  0  0
 19 26  1  0  0  0  0
 19 15  1  0  0  0  0
 20 21  2  0  0  0  0
 20 25  1  0  0  0  0
 21 22  1  0  0  0  0
 22 23  2  0  0  0  0
 24 23  1  0  0  0  0
 25 24  2  0  0  0  0
 26 27  3  0  0  0  0
 28 29  1  0  0  0  0
 28  4  1  0  0  0  0
 29 35  1  0  0  0  0
 30 29  2  0  0  0  0
 30 31  1  0  0  0  0
 31 32  2  0  0  0  0
 32 34  1  0  0  0  0
 32 33  1  0  0  0  0
 35 34  2  0  0  0  0
M  END
>  <MODEL>
1

>  <REMARK>
  Name = ZINC39662364
                            x       y       z     vdW  Elec       q    Type
                         _______ _______ _______ _____ _____    ______ ____

>  <TORSDO>
F 6

>  <minimizedAffinity>
-9.1622009422294131

$$$$
ZINC39662364
 OpenBabel10211216083D

 35 38  0  0  1  0  0  0  0  0999 V2000
   48.8830   51.1340   18.6800 C   0  0  1  0  0  0  0  0  0  0  0  0
   48.0510   50.4920   17.5470 C   0  0  0  0  0  0  0  0  0  0  0  0
   49.0200   49.6560   16.8000 N   0  0  0  0  0  0  0  0  0  0  0  0
   49.1020   49.4800   15.4660 C   0  0  0  0  0  0  0  0  0  0  0  0
   49.9580   48.7570   15.0020 O   0  0  0  0  0  0  0  0  0  0  0  0
   49.8760   49.0560   17.8500 C   0  0  0  0  0  0  0  0  0  0  0  0
   50.0760   50.1860   18.8790 C   0  0  0  0  0  0  0  0  0  0  0  0
   50.0720   49.6190   20.2950 C   0  0  0  0  0  0  0  0  0  0  0  0
   51.3010   48.7260   20.4880 C   0  0  0  0  0  0  0  0  0  0  0  0
   52.5190   49.5120   20.2580 N   0  0  0  0  0  0  0  0  0  0  0  0
   53.3280   48.9370   20.4440 H   0  0  0  0  0  0  0  0  0  0  0  0
   52.5250   50.3080   20.8770 H   0  0  0  0  0  0  0  0  0  0  0  0
   52.5610   49.9750   18.8660 C   0  0  0  0  0  0  0  0  0  0  0  0
   51.3860   50.9210   18.6060 C   0  0  0  0  0  0  0  0  0  0  0  0
   49.7030   53.4060   19.2080 N   0  0  0  0  0  0  0  0  0  0  0  0
   49.6420   53.1760   20.1490 H   0  0  0  0  0  0  0  0  0  0  0  0
   49.3610   52.5030   18.2690 C   0  0  0  0  0  0  0  0  0  0  0  0
   49.4380   52.7910   17.0940 O   0  0  0  0  0  0  0  0  0  0  0  0
   50.1680   54.7370   18.8090 C   0  0  1  0  0  0  0  0  0  0  0  0
   48.2850   57.6960   21.2460 C   0  0  0  0  0  0  0  0  0  0  0  0
   49.5440   57.2310   21.5740 C   0  0  0  0  0  0  0  0  0  0  0  0
   50.1530   56.2740   20.7850 C   0  0  0  0  0  0  0  0  0  0  0  0
   49.5040   55.7810   19.6690 C   0  0  0  0  0  0  0  0  0  0  0  0
   48.2440   56.2450   19.3420 C   0  0  0  0  0  0  0  0  0  0  0  0
   47.6340   57.2040   20.1300 C   0  0  0  0  0  0  0  0  0  0  0  0
   51.6280   54.8170   18.9790 C   0  0  0  0  0  0  0  0  0  0  0  0
   52.7550   54.8790   19.1090 N   0  0  0  0  0  0  0  0  0  0  0  0
   48.1330   50.1830   14.5510 C   0  0  0  0  0  0  0  0  0  0  0  0
   47.1300   49.1890   14.0230 C   0  0  0  0  0  0  0  0  0  0  0  0
   46.7950   49.1950   12.6820 C   0  0  0  0  0  0  0  0  0  0  0  0
   45.8750   48.2850   12.1950 C   0  0  0  0  0  0  0  0  0  0  0  0
   45.2910   47.3680   13.0510 C   0  0  0  0  0  0  0  0  0  0  0  0
   44.1360   46.2240   12.4410 Cl  0  0  0  0  0  0  0  0  0  0  0  0
   45.6280   47.3630   14.3930 C   0  0  0  0  0  0  0  0  0  0  0  0
   46.5520   48.2700   14.8770 C   0  0  0  0  0  0  0  0  0  0  0  0
  1 17  1  6  0  0  0
  1  7  1  0  0  0  0
  2  1  1  0  0  0  0
  3  2  1  0  0  0  0
  3  6  1  0  0  0  0
  4  3  1  0  0  0  0
  5  4  2  0  0  0  0
  6  7  1  0  0  0  0
  7  8  1  0  0  0  0
  8  9  1  0  0  0  0
 10 11  1  0  0  0  0
 10  9  1  0  0  0  0
 10 12  1  0  0  0  0
 13 10  1  0  0  0  0
 14 13  1  0  0  0  0
 14  7  1  0  0  0  0
 15 16  1  0  0  0  0
 17 15  1  0  0  0  0
 18 17  2  0  0  0  0
 19 26  1  1  0  0  0
 19 15  1  0  0  0  0
 19 23  1  0  0  0  0
 20 21  1  0  0  0  0
 22 21  2  0  0  0  0
 23 22  1  0  0  0  0
 24 23  2  0  0  0  0
 24 25  1  0  0  0  0
 25 20  2  0  0  0  0
 26 27  3  0  0  0  0
 28  4  1  0  0  0  0
 29 28  1  0  0  0  0
 29 35  2  0  0  0  0
 30 29  1  0  0  0  0
 31 30  2  0  0  0  0
 31 32  1  0  0  0  0
 32 34  2  0  0  0  0
 33 32  1  0  0  0  0
 34 35  1  0  0  0  0
M  END
>  <MODEL>
2

>  <REMARK>
  Name = ZINC39662364
                            x       y       z     vdW  Elec       q    Type
                         _______ _______ _______ _____ _____    ______ ____

>  <TORSDO>
F 6

>  <minimizedAffinity>
-9.0525214818263198

$$$$
ZINC39662364
 OpenBabel10211216083D

 35 38  0  0  1  0  0  0  0  0999 V2000
   52.0770   51.1420   18.0570 C   0  0  1  0  0  0  0  0  0  0  0  0
   52.1830   52.6030   18.5520 C   0  0  0  0  0  0  0  0  0  0  0  0
   51.3390   52.6470   19.7690 N   0  0  0  0  0  0  0  0  0  0  0  0
   50.5160   53.6380   20.1670 C   0  0  0  0  0  0  0  0  0  0  0  0
   49.8860   53.5250   21.1970 O   0  0  0  0  0  0  0  0  0  0  0  0
   51.6060   51.3580   20.4500 C   0  0  0  0  0  0  0  0  0  0  0  0
   51.7030   50.3290   19.3070 C   0  0  0  0  0  0  0  0  0  0  0  0
   52.7860   49.3000   19.6130 C   0  0  0  0  0  0  0  0  0  0  0  0
   52.3640   48.4630   20.8240 C   0  0  0  0  0  0  0  0  0  0  0  0
   51.0910   47.7920   20.5370 N   0  0  0  0  0  0  0  0  0  0  0  0
   50.8450   47.1950   21.3120 H   0  0  0  0  0  0  0  0  0  0  0  0
   51.1880   47.2330   19.7020 H   0  0  0  0  0  0  0  0  0  0  0  0
   50.0330   48.7890   20.3360 C   0  0  0  0  0  0  0  0  0  0  0  0
   50.3570   49.6380   19.1040 C   0  0  0  0  0  0  0  0  0  0  0  0
   49.8260   51.6570   17.1730 N   0  0  0  0  0  0  0  0  0  0  0  0
   49.6720   52.1950   17.9670 H   0  0  0  0  0  0  0  0  0  0  0  0
   51.0020   51.0200   17.0090 C   0  0  0  0  0  0  0  0  0  0  0  0
   51.1940   50.3500   16.0170 O   0  0  0  0  0  0  0  0  0  0  0  0
   48.7800   51.5400   16.1540 C   0  0  1  0  0  0  0  0  0  0  0  0
   46.4010   48.0820   16.9460 C   0  0  0  0  0  0  0  0  0  0  0  0
   47.1650   48.1460   15.7970 C   0  0  0  0  0  0  0  0  0  0  0  0
   47.9350   49.2650   15.5410 C   0  0  0  0  0  0  0  0  0  0  0  0
   47.9410   50.3200   16.4330 C   0  0  0  0  0  0  0  0  0  0  0  0
   47.1750   50.2560   17.5830 C   0  0  0  0  0  0  0  0  0  0  0  0
   46.4060   49.1370   17.8400 C   0  0  0  0  0  0  0  0  0  0  0  0
   47.9280   52.7400   16.1850 C   0  0  0  0  0  0  0  0  0  0  0  0
   47.2710   53.6660   16.2100 N   0  0  0  0  0  0  0  0  0  0  0  0
   50.3760   54.8830   19.3310 C   0  0  0  0  0  0  0  0  0  0  0  0
   51.0300   56.0410   20.0420 C   0  0  0  0  0  0  0  0  0  0  0  0
   50.2670   56.8920   20.8200 C   0  0  0  0  0  0  0  0  0  0  0  0
   50.8640   57.9540   21.4720 C   0  0  0  0  0  0  0  0  0  0  0  0
   52.2260   58.1650   21.3460 C   0  0  0  0  0  0  0  0  0  0  0  0
   52.9770   59.4990   22.1660 Cl  0  0  0  0  0  0  0  0  0  0  0  0
   52.9890   57.3130   20.5670 C   0  0  0  0  0  0  0  0  0  0  0  0
   52.3900   56.2480   19.9210 C   0  0  0  0  0  0  0  0  0  0  0  0
  1 17  1  1  0  0  0
  1  2  1  0  0  0  0
  1  7  1  0  0  0  0
  2  3  1  0  0  0  0
  3  4  1  0  0  0  0
  3  6  1  0  0  0  0
  4  5  2  0  0  0  0
  7  8  1  0  0  0  0
  7  6  1  0  0  0  0
  8  9  1  0  0  0  0
 10  9  1  0  0  0  0
 10 11  1  0  0  0  0
 12 10  1  0  0  0  0
 13 10  1  0  0  0  0
 14  7  1  0  0  0  0
 14 13  1  0  0  0  0
 15 16  1  0  0  0  0
 17 15  1  0  0  0  0
 18 17  2  0  0  0  0
 19 26  1  1  0  0  0
 19 23  1  0  0  0  0
 19 15  1  0  0  0  0
 20 25  2  0  0  0  0
 21 20  1  0  0  0  0
 22 21  2  0  0  0  0
 22 23  1  0  0  0  0
 23 24  2  0  0  0  0
 24 25  1  0  0  0  0
 26 27  3  0  0  0  0
 28 29  1  0  0  0  0
 28  4  1  0  0  0  0
 29 30  1  0  0  0  0
 30 31  2  0  0  0  0
 32 31  1  0  0  0  0
 32 33  1  0  0  0  0
 34 32  2  0  0  0  0
 35 29  2  0  0  0  0
 35 34  1  0  0  0  0
M  END
>  <MODEL>
3

>  <REMARK>
  Name = ZINC39662364
                            x       y       z     vdW  Elec       q    Type
                         _______ _______ _______ _____ _____    ______ ____

>  <TORSDO>
F 6

>  <minimizedAffinity>
-8.9409951434562611

$$$$
ZINC39662364
 OpenBabel10211216083D

 35 38  0  0  1  0  0  0  0  0999 V2000
   50.8550   51.7440   18.1780 C   0  0  1  0  0  0  0  0  0  0  0  0
   51.0780   53.1880   18.6800 C   0  0  0  0  0  0  0  0  0  0  0  0
   51.1290   53.0670   20.1560 N   0  0  0  0  0  0  0  0  0  0  0  0
   50.6070   53.9080   21.0720 C   0  0  0  0  0  0  0  0  0  0  0  0
   50.7340   53.6690   22.2540 O   0  0  0  0  0  0  0  0  0  0  0  0
   51.8850   51.8160   20.3970 C   0  0  0  0  0  0  0  0  0  0  0  0
   51.3890   50.8470   19.3060 C   0  0  0  0  0  0  0  0  0  0  0  0
   52.5430   49.9890   18.7980 C   0  0  0  0  0  0  0  0  0  0  0  0
   53.0190   49.0620   19.9200 C   0  0  0  0  0  0  0  0  0  0  0  0
   51.9060   48.2110   20.3600 N   0  0  0  0  0  0  0  0  0  0  0  0
   52.2380   47.5610   21.0570 H   0  0  0  0  0  0  0  0  0  0  0  0
   51.5450   47.6990   19.5700 H   0  0  0  0  0  0  0  0  0  0  0  0
   50.8400   49.0400   20.9340 C   0  0  0  0  0  0  0  0  0  0  0  0
   50.2710   49.9640   19.8540 C   0  0  0  0  0  0  0  0  0  0  0  0
   48.9650   50.2630   17.5840 N   0  0  0  0  0  0  0  0  0  0  0  0
   49.6070   49.5450   17.4620 H   0  0  0  0  0  0  0  0  0  0  0  0
   49.3860   51.4880   17.9540 C   0  0  0  0  0  0  0  0  0  0  0  0
   48.5850   52.3840   18.1070 O   0  0  0  0  0  0  0  0  0  0  0  0
   47.5380   50.0140   17.3670 C   0  0  1  0  0  0  0  0  0  0  0  0
   46.9110   48.7260   13.3430 C   0  0  0  0  0  0  0  0  0  0  0  0
   47.9160   49.6310   13.6300 C   0  0  0  0  0  0  0  0  0  0  0  0
   48.1190   50.0470   14.9320 C   0  0  0  0  0  0  0  0  0  0  0  0
   47.3170   49.5600   15.9470 C   0  0  0  0  0  0  0  0  0  0  0  0
   46.3110   48.6560   15.6600 C   0  0  0  0  0  0  0  0  0  0  0  0
   46.1090   48.2390   14.3570 C   0  0  0  0  0  0  0  0  0  0  0  0
   47.0760   48.9680   18.2950 C   0  0  0  0  0  0  0  0  0  0  0  0
   46.7190   48.1610   19.0100 N   0  0  0  0  0  0  0  0  0  0  0  0
   49.8650   55.1410   20.6270 C   0  0  0  0  0  0  0  0  0  0  0  0
   50.6250   56.3690   21.0590 C   0  0  0  0  0  0  0  0  0  0  0  0
   49.9510   57.4310   21.6310 C   0  0  0  0  0  0  0  0  0  0  0  0
   50.6460   58.5580   22.0280 C   0  0  0  0  0  0  0  0  0  0  0  0
   52.0170   58.6210   21.8540 C   0  0  0  0  0  0  0  0  0  0  0  0
   52.8910   60.0360   22.3530 Cl  0  0  0  0  0  0  0  0  0  0  0  0
   52.6910   57.5570   21.2810 C   0  0  0  0  0  0  0  0  0  0  0  0
   51.9950   56.4290   20.8900 C   0  0  0  0  0  0  0  0  0  0  0  0
  1 17  1  1  0  0  0
  1  2  1  0  0  0  0
  1  7  1  0  0  0  0
  2  3  1  0  0  0  0
  3  6  1  0  0  0  0
  3  4  1  0  0  0  0
  4  5  2  0  0  0  0
  7 14  1  0  0  0  0
  7  6  1  0  0  0  0
  8  7  1  0  0  0  0
  8  9  1  0  0  0  0
  9 10  1  0  0  0  0
 10 13  1  0  0  0  0
 10 11  1  0  0  0  0
 12 10  1  0  0  0  0
 14 13  1  0  0  0  0
 15 17  1  0  0  0  0
 16 15  1  0  0  0  0
 17 18  2  0  0  0  0
 19 23  1  6  0  0  0
 19 15  1  0  0  0  0
 19 26  1  0  0  0  0
 20 21  2  0  0  0  0
 20 25  1  0  0  0  0
 21 22  1  0  0  0  0
 22 23  2  0  0  0  0
 24 23  1  0  0  0  0
 25 24  2  0  0  0  0
 26 27  3  0  0  0  0
 28 29  1  0  0  0  0
 28  4  1  0  0  0  0
 29 30  1  0  0  0  0
 30 31  2  0  0  0  0
 32 31  1  0  0  0  0
 32 33  1  0  0  0  0
 34 32  2  0  0  0  0
 35 29  2  0  0  0  0
 35 34  1  0  0  0  0
M  END
>  <MODEL>
4

>  <REMARK>
  Name = ZINC39662364
                            x       y       z     vdW  Elec       q    Type
                         _______ _______ _______ _____ _____    ______ ____

>  <TORSDO>
F 6

>  <minimizedAffinity>
-8.6337405221158345

$$$$
ZINC39662364
 OpenBabel10211216083D

 35 38  0  0  1  0  0  0  0  0999 V2000
   43.8560   62.4960   18.1000 C   0  0  1  0  0  0  0  0  0  0  0  0
   44.4990   61.6340   19.2110 C   0  0  0  0  0  0  0  0  0  0  0  0
   45.9450   61.6230   18.8860 N   0  0  0  0  0  0  0  0  0  0  0  0
   46.8060   60.5910   18.9890 C   0  0  0  0  0  0  0  0  0  0  0  0
   47.9700   60.7410   18.6820 O   0  0  0  0  0  0  0  0  0  0  0  0
   46.2290   63.0020   18.4250 C   0  0  0  0  0  0  0  0  0  0  0  0
   44.9940   63.3940   17.5900 C   0  0  0  0  0  0  0  0  0  0  0  0
   44.6490   64.8630   17.8140 C   0  0  0  0  0  0  0  0  0  0  0  0
   45.7690   65.7390   17.2450 C   0  0  0  0  0  0  0  0  0  0  0  0
   45.9250   65.4670   15.8110 N   0  0  0  0  0  0  0  0  0  0  0  0
   46.6210   66.0870   15.4260 H   0  0  0  0  0  0  0  0  0  0  0  0
   45.0450   65.6200   15.3430 H   0  0  0  0  0  0  0  0  0  0  0  0
   46.3480   64.0760   15.6100 C   0  0  0  0  0  0  0  0  0  0  0  0
   45.2530   63.1300   16.1090 C   0  0  0  0  0  0  0  0  0  0  0  0
   43.7640   60.3430   16.8870 N   0  0  0  0  0  0  0  0  0  0  0  0
   44.4010   59.9900   17.5290 H   0  0  0  0  0  0  0  0  0  0  0  0
   43.3410   61.6180   16.9890 C   0  0  0  0  0  0  0  0  0  0  0  0
   42.5450   62.0580   16.1880 O   0  0  0  0  0  0  0  0  0  0  0  0
   43.2630   59.4890   15.8080 C   0  0  1  0  0  0  0  0  0  0  0  0
   46.2900   56.6960   14.6770 C   0  0  0  0  0  0  0  0  0  0  0  0
   46.6040   57.7570   15.5040 C   0  0  0  0  0  0  0  0  0  0  0  0
   45.6250   58.6610   15.8700 C   0  0  0  0  0  0  0  0  0  0  0  0
   44.3310   58.5040   15.4090 C   0  0  0  0  0  0  0  0  0  0  0  0
   44.0180   57.4420   14.5800 C   0  0  0  0  0  0  0  0  0  0  0  0
   44.9970   56.5370   14.2150 C   0  0  0  0  0  0  0  0  0  0  0  0
   42.0710   58.7590   16.2720 C   0  0  0  0  0  0  0  0  0  0  0  0
   41.1520   58.1970   16.6290 N   0  0  0  0  0  0  0  0  0  0  0  0
   46.3230   59.2530   19.4830 C   0  0  0  0  0  0  0  0  0  0  0  0
   47.5040   58.4160   19.9050 C   0  0  0  0  0  0  0  0  0  0  0  0
   48.0150   58.5390   21.1830 C   0  0  0  0  0  0  0  0  0  0  0  0
   49.0980   57.7730   21.5720 C   0  0  0  0  0  0  0  0  0  0  0  0
   49.6700   56.8830   20.6800 C   0  0  0  0  0  0  0  0  0  0  0  0
   51.0310   55.9200   21.1670 Cl  0  0  0  0  0  0  0  0  0  0  0  0
   49.1570   56.7600   19.4000 C   0  0  0  0  0  0  0  0  0  0  0  0
   48.0710   57.5230   19.0160 C   0  0  0  0  0  0  0  0  0  0  0  0
  1 17  1  6  0  0  0
  1  2  1  0  0  0  0
  3  4  1  0  0  0  0
  3  2  1  0  0  0  0
  4 28  1  0  0  0  0
  5  4  2  0  0  0  0
  6  3  1  0  0  0  0
  7  8  1  0  0  0  0
  7  1  1  0  0  0  0
  7  6  1  0  0  0  0
  9  8  1  0  0  0  0
 10  9  1  0  0  0  0
 11 10  1  0  0  0  0
 12 10  1  0  0  0  0
 13 10  1  0  0  0  0
 13 14  1  0  0  0  0
 14  7  1  0  0  0  0
 15 17  1  0  0  0  0
 15 16  1  0  0  0  0
 18 17  2  0  0  0  0
 19 23  1  1  0  0  0
 19 26  1  0  0  0  0
 19 15  1  0  0  0  0
 20 21  2  0  0  0  0
 21 22  1  0  0  0  0
 23 22  2  0  0  0  0
 24 23  1  0  0  0  0
 25 24  2  0  0  0  0
 25 20  1  0  0  0  0
 26 27  3  0  0  0  0
 28 29  1  0  0  0  0
 29 30  2  0  0  0  0
 30 31  1  0  0  0  0
 32 33  1  0  0  0  0
 32 31  2  0  0  0  0
 34 32  1  0  0  0  0
 35 34  2  0  0  0  0
 35 29  1  0  0  0  0
M  END
>  <MODEL>
5

>  <REMARK>
  Name = ZINC39662364
                            x       y       z     vdW  Elec       q    Type
                         _______ _______ _______ _____ _____    ______ ____

>  <TORSDO>
F 6

>  <minimizedAffinity>
-8.4501981110632141

$$$$
ZINC39662364
 OpenBabel10211216083D

 35 38  0  0  1  0  0  0  0  0999 V2000
   44.8360   46.7840   13.6710 C   0  0  1  0  0  0  0  0  0  0  0  0
   45.6290   47.5690   14.7400 C   0  0  0  0  0  0  0  0  0  0  0  0
   45.2000   46.9800   16.0300 N   0  0  0  0  0  0  0  0  0  0  0  0
   44.9610   47.6210   17.1920 C   0  0  0  0  0  0  0  0  0  0  0  0
   44.6140   46.9930   18.1700 O   0  0  0  0  0  0  0  0  0  0  0  0
   45.0950   45.5270   15.7550 C   0  0  0  0  0  0  0  0  0  0  0  0
   44.4920   45.4430   14.3390 C   0  0  0  0  0  0  0  0  0  0  0  0
   45.1190   44.2890   13.5660 C   0  0  0  0  0  0  0  0  0  0  0  0
   44.7140   42.9630   14.2150 C   0  0  0  0  0  0  0  0  0  0  0  0
   43.2510   42.8420   14.2120 N   0  0  0  0  0  0  0  0  0  0  0  0
   42.9890   41.9420   14.5860 H   0  0  0  0  0  0  0  0  0  0  0  0
   42.9100   42.9230   13.2660 H   0  0  0  0  0  0  0  0  0  0  0  0
   42.6600   43.9020   15.0370 C   0  0  0  0  0  0  0  0  0  0  0  0
   42.9780   45.2670   14.4210 C   0  0  0  0  0  0  0  0  0  0  0  0
   43.2800   47.7430   12.0050 N   0  0  0  0  0  0  0  0  0  0  0  0
   43.8760   47.4220   11.3100 H   0  0  0  0  0  0  0  0  0  0  0  0
   43.5780   47.5260   13.3010 C   0  0  0  0  0  0  0  0  0  0  0  0
   42.8330   47.9270   14.1690 O   0  0  0  0  0  0  0  0  0  0  0  0
   42.0570   48.4640   11.6450 C   0  0  1  0  0  0  0  0  0  0  0  0
   42.9760   52.5760   10.9490 C   0  0  0  0  0  0  0  0  0  0  0  0
   43.8610   51.5940   10.5490 C   0  0  0  0  0  0  0  0  0  0  0  0
   43.5640   50.2630   10.7740 C   0  0  0  0  0  0  0  0  0  0  0  0
   42.3810   49.9150   11.4000 C   0  0  0  0  0  0  0  0  0  0  0  0
   41.4960   50.8980   11.8000 C   0  0  0  0  0  0  0  0  0  0  0  0
   41.7930   52.2290   11.5740 C   0  0  0  0  0  0  0  0  0  0  0  0
   41.4820   47.8760   10.4240 C   0  0  0  0  0  0  0  0  0  0  0  0
   41.0390   47.4220    9.4820 N   0  0  0  0  0  0  0  0  0  0  0  0
   45.1240   49.1160   17.2750 C   0  0  0  0  0  0  0  0  0  0  0  0
   46.5470   49.4470   17.6470 C   0  0  0  0  0  0  0  0  0  0  0  0
   47.1680   50.5480   17.0870 C   0  0  0  0  0  0  0  0  0  0  0  0
   48.4730   50.8530   17.4270 C   0  0  0  0  0  0  0  0  0  0  0  0
   49.1560   50.0570   18.3290 C   0  0  0  0  0  0  0  0  0  0  0  0
   50.7950   50.4400   18.7570 Cl  0  0  0  0  0  0  0  0  0  0  0  0
   48.5330   48.9560   18.8900 C   0  0  0  0  0  0  0  0  0  0  0  0
   47.2260   48.6560   18.5530 C   0  0  0  0  0  0  0  0  0  0  0  0
  1 17  1  1  0  0  0
  1  7  1  0  0  0  0
  1  2  1  0  0  0  0
  2  3  1  0  0  0  0
  3  4  1  0  0  0  0
  4 28  1  0  0  0  0
  4  5  2  0  0  0  0
  6  3  1  0  0  0  0
  7 14  1  0  0  0  0
  7  6  1  0  0  0  0
  8  9  1  0  0  0  0
  8  7  1  0  0  0  0
 10  9  1  0  0  0  0
 10 11  1  0  0  0  0
 10 13  1  0  0  0  0
 12 10  1  0  0  0  0
 14 13  1  0  0  0  0
 15 17  1  0  0  0  0
 16 15  1  0  0  0  0
 17 18  2  0  0  0  0
 19 26  1  6  0  0  0
 19 15  1  0  0  0  0
 20 25  2  0  0  0  0
 21 22  2  0  0  0  0
 21 20  1  0  0  0  0
 22 23  1  0  0  0  0
 23 19  1  0  0  0  0
 23 24  2  0  0  0  0
 25 24  1  0  0  0  0
 27 26  3  0  0  0  0
 28 29  1  0  0  0  0
 29 35  2  0  0  0  0
 30 31  2  0  0  0  0
 30 29  1  0  0  0  0
 31 32  1  0  0  0  0
 32 33  1  0  0  0  0
 32 34  2  0  0  0  0
 35 34  1  0  0  0  0
M  END
>  <MODEL>
6

>  <REMARK>
  Name = ZINC39662364
                            x       y       z     vdW  Elec       q    Type
                         _______ _______ _______ _____ _____    ______ ____

>  <TORSDO>
F 6

>  <minimizedAffinity>
-8.4422783170761662

$$$$
ZINC39662364
 OpenBabel10211216083D

 35 38  0  0  1  0  0  0  0  0999 V2000
   44.1660   57.8460   14.9240 C   0  0  1  0  0  0  0  0  0  0  0  0
   42.9470   58.6520   15.4280 C   0  0  0  0  0  0  0  0  0  0  0  0
   42.7060   59.6630   14.3720 N   0  0  0  0  0  0  0  0  0  0  0  0
   42.3470   60.9530   14.5310 C   0  0  0  0  0  0  0  0  0  0  0  0
   42.1860   61.6610   13.5600 O   0  0  0  0  0  0  0  0  0  0  0  0
   42.9460   58.9360   13.1040 C   0  0  0  0  0  0  0  0  0  0  0  0
   44.1590   58.0320   13.3980 C   0  0  0  0  0  0  0  0  0  0  0  0
   43.9940   56.6850   12.7020 C   0  0  0  0  0  0  0  0  0  0  0  0
   44.0500   56.8880   11.1850 C   0  0  0  0  0  0  0  0  0  0  0  0
   45.3330   57.4980   10.8180 N   0  0  0  0  0  0  0  0  0  0  0  0
   45.3920   57.5760    9.8140 H   0  0  0  0  0  0  0  0  0  0  0  0
   46.0880   56.9180   11.1530 H   0  0  0  0  0  0  0  0  0  0  0  0
   45.4420   58.8340   11.4170 C   0  0  0  0  0  0  0  0  0  0  0  0
   45.4460   58.7120   12.9430 C   0  0  0  0  0  0  0  0  0  0  0  0
   45.3850   59.2250   16.5750 N   0  0  0  0  0  0  0  0  0  0  0  0
   44.5270   59.4680   16.9590 H   0  0  0  0  0  0  0  0  0  0  0  0
   45.4390   58.3960   15.5150 C   0  0  0  0  0  0  0  0  0  0  0  0
   46.5100   58.0920   15.0370 O   0  0  0  0  0  0  0  0  0  0  0  0
   46.6210   59.7600   17.1510 C   0  0  1  0  0  0  0  0  0  0  0  0
   45.6850   62.9780   19.7980 C   0  0  0  0  0  0  0  0  0  0  0  0
   46.9420   62.8950   19.2300 C   0  0  0  0  0  0  0  0  0  0  0  0
   47.2450   61.8540   18.3730 C   0  0  0  0  0  0  0  0  0  0  0  0
   46.2910   60.8950   18.0850 C   0  0  0  0  0  0  0  0  0  0  0  0
   45.0340   60.9780   18.6540 C   0  0  0  0  0  0  0  0  0  0  0  0
   44.7310   62.0210   19.5110 C   0  0  0  0  0  0  0  0  0  0  0  0
   47.3160   58.6970   17.8950 C   0  0  0  0  0  0  0  0  0  0  0  0
   47.8520   57.8770   18.4700 N   0  0  0  0  0  0  0  0  0  0  0  0
   42.1490   61.5160   15.9150 C   0  0  0  0  0  0  0  0  0  0  0  0
   43.1310   62.6350   16.1480 C   0  0  0  0  0  0  0  0  0  0  0  0
   44.3800   62.5920   15.5560 C   0  0  0  0  0  0  0  0  0  0  0  0
   45.2810   63.6180   15.7690 C   0  0  0  0  0  0  0  0  0  0  0  0
   44.9330   64.6890   16.5730 C   0  0  0  0  0  0  0  0  0  0  0  0
   46.0650   65.9780   16.8400 Cl  0  0  0  0  0  0  0  0  0  0  0  0
   43.6830   64.7320   17.1650 C   0  0  0  0  0  0  0  0  0  0  0  0
   42.7810   63.7070   16.9460 C   0  0  0  0  0  0  0  0  0  0  0  0
  1  2  1  0  0  0  0
  1 17  1  6  0  0  0
  3  4  1  0  0  0  0
  3  2  1  0  0  0  0
  4 28  1  0  0  0  0
  5  4  2  0  0  0  0
  6  7  1  0  0  0  0
  6  3  1  0  0  0  0
  7  1  1  0  0  0  0
  8  7  1  0  0  0  0
  9  8  1  0  0  0  0
 10 12  1  0  0  0  0
 10  9  1  0  0  0  0
 10 13  1  0  0  0  0
 11 10  1  0  0  0  0
 13 14  1  0  0  0  0
 14  7  1  0  0  0  0
 15 16  1  0  0  0  0
 17 15  1  0  0  0  0
 18 17  2  0  0  0  0
 19 15  1  1  0  0  0
 19 26  1  0  0  0  0
 19 23  1  0  0  0  0
 21 20  2  0  0  0  0
 22 21  1  0  0  0  0
 23 22  2  0  0  0  0
 23 24  1  0  0  0  0
 24 25  2  0  0  0  0
 25 20  1  0  0  0  0
 26 27  3  0  0  0  0
 28 29  1  0  0  0  0
 29 35  2  0  0  0  0
 30 31  2  0  0  0  0
 30 29  1  0  0  0  0
 31 32  1  0  0  0  0
 32 33  1  0  0  0  0
 32 34  2  0  0  0  0
 35 34  1  0  0  0  0
M  END
>  <MODEL>
7

>  <REMARK>
  Name = ZINC39662364
                            x       y       z     vdW  Elec       q    Type
                         _______ _______ _______ _____ _____    ______ ____

>  <TORSDO>
F 6

>  <minimizedAffinity>
-7.8874915166894137

$$$$
ZINC39662364
 OpenBabel10211216083D

 35 38  0  0  1  0  0  0  0  0999 V2000
   40.3620   60.7920   15.9840 C   0  0  1  0  0  0  0  0  0  0  0  0
   40.4420   62.0190   15.0470 C   0  0  0  0  0  0  0  0  0  0  0  0
   41.6630   61.7930   14.2390 N   0  0  0  0  0  0  0  0  0  0  0  0
   42.5760   62.7050   13.8500 C   0  0  0  0  0  0  0  0  0  0  0  0
   43.5300   62.3610   13.1840 O   0  0  0  0  0  0  0  0  0  0  0  0
   41.6520   60.3390   13.9540 C   0  0  0  0  0  0  0  0  0  0  0  0
   41.1530   59.6910   15.2610 C   0  0  0  0  0  0  0  0  0  0  0  0
   40.2460   58.5050   14.9500 C   0  0  0  0  0  0  0  0  0  0  0  0
   41.0690   57.3980   14.2840 C   0  0  0  0  0  0  0  0  0  0  0  0
   42.1560   56.9870   15.1800 N   0  0  0  0  0  0  0  0  0  0  0  0
   42.6590   56.2170   14.7650 H   0  0  0  0  0  0  0  0  0  0  0  0
   41.7680   56.6940   16.0640 H   0  0  0  0  0  0  0  0  0  0  0  0
   43.0760   58.1090   15.3990 C   0  0  0  0  0  0  0  0  0  0  0  0
   42.3380   59.2450   16.1130 C   0  0  0  0  0  0  0  0  0  0  0  0
   41.9040   62.0960   17.4110 N   0  0  0  0  0  0  0  0  0  0  0  0
   42.1520   62.6070   16.6230 H   0  0  0  0  0  0  0  0  0  0  0  0
   40.9950   61.1070   17.3150 C   0  0  0  0  0  0  0  0  0  0  0  0
   40.6860   60.4700   18.2990 O   0  0  0  0  0  0  0  0  0  0  0  0
   42.5200   62.4030   18.7040 C   0  0  1  0  0  0  0  0  0  0  0  0
   46.7730   62.3240   18.3140 C   0  0  0  0  0  0  0  0  0  0  0  0
   45.9780   61.7920   17.3170 C   0  0  0  0  0  0  0  0  0  0  0  0
   44.6020   61.8180   17.4430 C   0  0  0  0  0  0  0  0  0  0  0  0
   44.0200   62.3750   18.5660 C   0  0  0  0  0  0  0  0  0  0  0  0
   44.8160   62.9060   19.5640 C   0  0  0  0  0  0  0  0  0  0  0  0
   46.1920   62.8810   19.4380 C   0  0  0  0  0  0  0  0  0  0  0  0
   42.0930   63.7410   19.1460 C   0  0  0  0  0  0  0  0  0  0  0  0
   41.7630   64.7730   19.4870 N   0  0  0  0  0  0  0  0  0  0  0  0
   42.4130   64.1500   14.2430 C   0  0  0  0  0  0  0  0  0  0  0  0
   43.6230   64.5980   15.0230 C   0  0  0  0  0  0  0  0  0  0  0  0
   44.8900   64.3790   14.5180 C   0  0  0  0  0  0  0  0  0  0  0  0
   46.0000   64.7890   15.2320 C   0  0  0  0  0  0  0  0  0  0  0  0
   45.8420   65.4200   16.4530 C   0  0  0  0  0  0  0  0  0  0  0  0
   47.2360   65.9360   17.3510 Cl  0  0  0  0  0  0  0  0  0  0  0  0
   44.5720   65.6400   16.9590 C   0  0  0  0  0  0  0  0  0  0  0  0
   43.4640   65.2330   16.2400 C   0  0  0  0  0  0  0  0  0  0  0  0
  1 17  1  6  0  0  0
  2  1  1  0  0  0  0
  3  2  1  0  0  0  0
  4  3  1  0  0  0  0
  4 28  1  0  0  0  0
  5  4  2  0  0  0  0
  6  3  1  0  0  0  0
  6  7  1  0  0  0  0
  7  1  1  0  0  0  0
  7 14  1  0  0  0  0
  8  7  1  0  0  0  0
  9  8  1  0  0  0  0
  9 10  1  0  0  0  0
 10 13  1  0  0  0  0
 10 12  1  0  0  0  0
 11 10  1  0  0  0  0
 13 14  1  0  0  0  0
 16 15  1  0  0  0  0
 17 15  1  0  0  0  0
 17 18  2  0  0  0  0
 19 15  1  6  0  0  0
 19 26  1  0  0  0  0
 20 25  2  0  0  0  0
 21 22  2  0  0  0  0
 21 20  1  0  0  0  0
 22 23  1  0  0  0  0
 23 19  1  0  0  0  0
 23 24  2  0  0  0  0
 25 24  1  0  0  0  0
 26 27  3  0  0  0  0
 28 29  1  0  0  0  0
 29 35  1  0  0  0  0
 30 29  2  0  0  0  0
 30 31  1  0  0  0  0
 31 32  2  0  0  0  0
 32 34  1  0  0  0  0
 32 33  1  0  0  0  0
 35 34  2  0  0  0  0
M  END
>  <MODEL>
8

>  <REMARK>
  Name = ZINC39662364
                            x       y       z     vdW  Elec       q    Type
                         _______ _______ _______ _____ _____    ______ ____

>  <TORSDO>
F 6

>  <minimizedAffinity>
-7.8297061206424807

$$$$
ZINC39662364
 OpenBabel10211216083D

 35 38  0  0  1  0  0  0  0  0999 V2000
   52.2220   55.2740   18.9880 C   0  0  1  0  0  0  0  0  0  0  0  0
   51.1130   55.7810   18.0370 C   0  0  0  0  0  0  0  0  0  0  0  0
   49.9840   56.1280   18.9320 N   0  0  0  0  0  0  0  0  0  0  0  0
   48.6690   55.9230   18.7180 C   0  0  0  0  0  0  0  0  0  0  0  0
   47.8590   56.2660   19.5530 O   0  0  0  0  0  0  0  0  0  0  0  0
   50.6270   56.7530   20.1110 C   0  0  0  0  0  0  0  0  0  0  0  0
   51.9010   55.9170   20.3460 C   0  0  0  0  0  0  0  0  0  0  0  0
   53.0490   56.8180   20.7890 C   0  0  0  0  0  0  0  0  0  0  0  0
   52.7340   57.4000   22.1700 C   0  0  0  0  0  0  0  0  0  0  0  0
   52.5440   56.3070   23.1320 N   0  0  0  0  0  0  0  0  0  0  0  0
   52.3950   56.6940   24.0520 H   0  0  0  0  0  0  0  0  0  0  0  0
   53.3670   55.7240   23.1430 H   0  0  0  0  0  0  0  0  0  0  0  0
   51.3790   55.5010   22.7490 C   0  0  0  0  0  0  0  0  0  0  0  0
   51.6380   54.8380   21.3930 C   0  0  0  0  0  0  0  0  0  0  0  0
   51.2330   53.0780   18.4240 N   0  0  0  0  0  0  0  0  0  0  0  0
   50.5850   53.5470   17.8730 H   0  0  0  0  0  0  0  0  0  0  0  0
   52.1750   53.7710   19.0930 C   0  0  0  0  0  0  0  0  0  0  0  0
   52.9840   53.1860   19.7800 O   0  0  0  0  0  0  0  0  0  0  0  0
   51.1860   51.6180   18.5250 C   0  0  1  0  0  0  0  0  0  0  0  0
   47.3010   50.2350   17.4130 C   0  0  0  0  0  0  0  0  0  0  0  0
   48.1000   49.4620   18.2340 C   0  0  0  0  0  0  0  0  0  0  0  0
   49.3570   49.9100   18.5940 C   0  0  0  0  0  0  0  0  0  0  0  0
   49.8160   51.1290   18.1330 C   0  0  0  0  0  0  0  0  0  0  0  0
   49.0170   51.9020   17.3110 C   0  0  0  0  0  0  0  0  0  0  0  0
   47.7590   51.4550   16.9520 C   0  0  0  0  0  0  0  0  0  0  0  0
   52.1930   51.0310   17.6260 C   0  0  0  0  0  0  0  0  0  0  0  0
   52.9690   50.5780   16.9320 N   0  0  0  0  0  0  0  0  0  0  0  0
   48.2050   55.2660   17.4440 C   0  0  0  0  0  0  0  0  0  0  0  0
   47.5090   56.2840   16.5780 C   0  0  0  0  0  0  0  0  0  0  0  0
   47.3930   57.5920   17.0080 C   0  0  0  0  0  0  0  0  0  0  0  0
   46.7550   58.5270   16.2150 C   0  0  0  0  0  0  0  0  0  0  0  0
   46.2330   58.1530   14.9900 C   0  0  0  0  0  0  0  0  0  0  0  0
   45.4320   59.3270   13.9920 Cl  0  0  0  0  0  0  0  0  0  0  0  0
   46.3510   56.8430   14.5580 C   0  0  0  0  0  0  0  0  0  0  0  0
   46.9940   55.9110   15.3510 C   0  0  0  0  0  0  0  0  0  0  0  0
  1 17  1  1  0  0  0
  1  7  1  0  0  0  0
  2  3  1  0  0  0  0
  2  1  1  0  0  0  0
  3  6  1  0  0  0  0
  4  3  1  0  0  0  0
  4  5  2  0  0  0  0
  6  7  1  0  0  0  0
  7  8  1  0  0  0  0
  7 14  1  0  0  0  0
  8  9  1  0  0  0  0
  9 10  1  0  0  0  0
 10 12  1  0  0  0  0
 10 11  1  0  0  0  0
 13 10  1  0  0  0  0
 14 13  1  0  0  0  0
 15 19  1  0  0  0  0
 15 17  1  0  0  0  0
 16 15  1  0  0  0  0
 17 18  2  0  0  0  0
 19 26  1  6  0  0  0
 20 21  2  0  0  0  0
 21 22  1  0  0  0  0
 23 19  1  0  0  0  0
 23 22  2  0  0  0  0
 24 23  1  0  0  0  0
 25 24  2  0  0  0  0
 25 20  1  0  0  0  0
 27 26  3  0  0  0  0
 28  4  1  0  0  0  0
 29 30  1  0  0  0  0
 29 28  1  0  0  0  0
 31 30  2  0  0  0  0
 32 31  1  0  0  0  0
 33 32  1  0  0  0  0
 34 32  2  0  0  0  0
 34 35  1  0  0  0  0
 35 29  2  0  0  0  0
M  END
>  <MODEL>
9

>  <REMARK>
  Name = ZINC39662364
                            x       y       z     vdW  Elec       q    Type
                         _______ _______ _______ _____ _____    ______ ____

>  <TORSDO>
F 6

>  <minimizedAffinity>
-7.7884371436010049

$$$$
ZINC37802118
 OpenBabel10211216093D

 23 23  0  0  1  0  0  0  0  0999 V2000
   49.6870   56.2930   21.0060 C   0  0  0  0  0  0  0  0  0  0  0  0
   50.7220   55.4360   21.1000 N   0  0  0  0  0  0  0  0  0  0  0  0
   49.5340   57.1530   21.8480 O   0  0  0  0  0  0  0  0  0  0  0  0
   50.8250   54.3060   20.1710 C   0  0  1  0  0  0  0  0  0  0  0  0
   52.1970   54.3370   19.4790 C   0  0  0  0  0  0  0  0  0  0  0  0
   52.4030   52.9790   18.7490 C   0  0  0  0  0  0  0  0  0  0  0  0
   51.7180   51.8170   20.0040 S   0  0  0  0  0  0  0  0  0  0  0  0
   50.8900   50.8650   19.3500 O   0  0  0  0  0  0  0  0  0  0  0  0
   52.7740   51.3650   20.8410 O   0  0  0  0  0  0  0  0  0  0  0  0
   50.6600   52.9810   20.9530 C   0  0  0  0  0  0  0  0  0  0  0  0
   48.7200   56.1850   19.8560 C   0  0  1  0  0  0  0  0  0  0  0  0
   49.4570   56.4490   18.5420 C   0  0  0  0  0  0  0  0  0  0  0  0
   48.1400   54.8340   19.8290 N   0  0  0  0  0  0  0  0  0  0  0  0
   48.8590   54.1560   20.0340 H   0  0  0  0  0  0  0  0  0  0  0  0
   47.7550   54.6510   18.9160 H   0  0  0  0  0  0  0  0  0  0  0  0
   47.4090   54.7680   20.5220 H   0  0  0  0  0  0  0  0  0  0  0  0
   47.6020   57.2150   20.0290 C   0  0  0  0  0  0  0  0  0  0  0  0
   47.2450   59.6220   19.4630 C   0  0  0  0  0  0  0  0  0  0  0  0
   47.7000   58.2650   18.9220 C   0  0  0  0  0  0  0  0  0  0  0  0
   51.7460   55.6320   22.1300 C   0  0  0  0  0  0  0  0  0  0  0  0
   52.3840   57.0110   21.9580 C   0  0  0  0  0  0  0  0  0  0  0  0
   53.7170   56.8620   21.4660 O   0  0  0  0  0  0  0  0  0  0  0  0
   54.1770   57.9670   20.6860 C   0  0  0  0  0  0  0  0  0  0  0  0
  1  2  1  0  0  0  0
  1  3  2  0  0  0  0
  2 20  1  0  0  0  0
  4 10  1  0  0  0  0
  4  2  1  1  0  0  0
  5  4  1  0  0  0  0
  6  5  1  0  0  0  0
  6  7  1  0  0  0  0
  7  9  2  0  0  0  0
  7 10  1  0  0  0  0
  8  7  2  0  0  0  0
 11 12  1  6  0  0  0
 11 17  1  0  0  0  0
 11  1  1  0  0  0  0
 13 11  1  0  0  0  0
 13 14  1  0  0  0  0
 13 16  1  0  0  0  0
 15 13  1  0  0  0  0
 19 18  1  0  0  0  0
 19 17  1  0  0  0  0
 21 20  1  0  0  0  0
 22 21  1  0  0  0  0
 23 22  1  0  0  0  0
M  END
>  <MODEL>
1

>  <REMARK>
  Name = ZINC37802118
                            x       y       z     vdW  Elec       q    Type
                         _______ _______ _______ _____ _____    ______ ____

>  <TORSDO>
F 8

>  <minimizedAffinity>
-6.0322932369941604

$$$$
ZINC37802118
 OpenBabel10211216093D

 23 23  0  0  1  0  0  0  0  0999 V2000
   50.3030   53.6230   18.7350 C   0  0  0  0  0  0  0  0  0  0  0  0
   51.3150   53.9610   19.5570 N   0  0  0  0  0  0  0  0  0  0  0  0
   50.3810   52.6190   18.0580 O   0  0  0  0  0  0  0  0  0  0  0  0
   51.2900   55.2460   20.2620 C   0  0  1  0  0  0  0  0  0  0  0  0
   51.6820   55.0300   21.7330 C   0  0  0  0  0  0  0  0  0  0  0  0
   51.9520   56.4220   22.3720 C   0  0  0  0  0  0  0  0  0  0  0  0
   52.8570   57.2520   20.9990 S   0  0  0  0  0  0  0  0  0  0  0  0
   52.3510   58.5710   20.8430 O   0  0  0  0  0  0  0  0  0  0  0  0
   54.2530   57.0560   21.1800 O   0  0  0  0  0  0  0  0  0  0  0  0
   52.2870   56.2200   19.5900 C   0  0  0  0  0  0  0  0  0  0  0  0
   49.0740   54.4910   18.6570 C   0  0  1  0  0  0  0  0  0  0  0  0
   49.3590   55.7000   17.7630 C   0  0  0  0  0  0  0  0  0  0  0  0
   47.9620   53.7150   18.0890 N   0  0  0  0  0  0  0  0  0  0  0  0
   47.7630   54.0460   17.1580 H   0  0  0  0  0  0  0  0  0  0  0  0
   47.1450   53.8260   18.6690 H   0  0  0  0  0  0  0  0  0  0  0  0
   48.2180   52.7390   18.0530 H   0  0  0  0  0  0  0  0  0  0  0  0
   48.6970   54.9720   20.0590 C   0  0  0  0  0  0  0  0  0  0  0  0
   48.5130   57.2760   21.0070 C   0  0  0  0  0  0  0  0  0  0  0  0
   47.9590   56.3080   19.9600 C   0  0  0  0  0  0  0  0  0  0  0  0
   52.4420   53.0430   19.7480 C   0  0  0  0  0  0  0  0  0  0  0  0
   52.0370   51.9330   20.7180 C   0  0  0  0  0  0  0  0  0  0  0  0
   52.9720   50.8560   20.6290 O   0  0  0  0  0  0  0  0  0  0  0  0
   52.6780   49.9130   19.5970 C   0  0  0  0  0  0  0  0  0  0  0  0
  1  2  1  0  0  0  0
  2 20  1  0  0  0  0
  3  1  2  0  0  0  0
  4  2  1  1  0  0  0
  4  5  1  0  0  0  0
  5  6  1  0  0  0  0
  7  9  2  0  0  0  0
  7  6  1  0  0  0  0
  8  7  2  0  0  0  0
 10  4  1  0  0  0  0
 10  7  1  0  0  0  0
 11 12  1  6  0  0  0
 11  1  1  0  0  0  0
 11 17  1  0  0  0  0
 13 11  1  0  0  0  0
 13 15  1  0  0  0  0
 14 13  1  0  0  0  0
 16 13  1  0  0  0  0
 19 17  1  0  0  0  0
 19 18  1  0  0  0  0
 20 21  1  0  0  0  0
 22 21  1  0  0  0  0
 23 22  1  0  0  0  0
M  END
>  <MODEL>
2

>  <REMARK>
  Name = ZINC37802118
                            x       y       z     vdW  Elec       q    Type
                         _______ _______ _______ _____ _____    ______ ____

>  <TORSDO>
F 8

>  <minimizedAffinity>
-6.0053897877052158

$$$$
ZINC37802118
 OpenBabel10211216093D

 23 23  0  0  1  0  0  0  0  0999 V2000
   50.3340   54.5170   20.3620 C   0  0  0  0  0  0  0  0  0  0  0  0
   50.7660   55.7900   20.4430 N   0  0  0  0  0  0  0  0  0  0  0  0
   49.1590   54.2870   20.1590 O   0  0  0  0  0  0  0  0  0  0  0  0
   52.1500   56.0710   20.8360 C   0  0  1  0  0  0  0  0  0  0  0  0
   52.8120   56.9620   19.7730 C   0  0  0  0  0  0  0  0  0  0  0  0
   54.1520   57.4980   20.3550 C   0  0  0  0  0  0  0  0  0  0  0  0
   53.6400   57.8720   22.0860 S   0  0  0  0  0  0  0  0  0  0  0  0
   54.6380   57.3930   22.9770 O   0  0  0  0  0  0  0  0  0  0  0  0
   53.2280   59.2300   22.1630 O   0  0  0  0  0  0  0  0  0  0  0  0
   52.1590   56.7900   22.2060 C   0  0  0  0  0  0  0  0  0  0  0  0
   51.3070   53.3790   20.5240 C   0  0  1  0  0  0  0  0  0  0  0  0
   52.4520   53.5400   19.5230 C   0  0  0  0  0  0  0  0  0  0  0  0
   51.8460   53.3870   21.8910 N   0  0  0  0  0  0  0  0  0  0  0  0
   51.3130   54.0280   22.4590 H   0  0  0  0  0  0  0  0  0  0  0  0
   52.8110   53.6790   21.8700 H   0  0  0  0  0  0  0  0  0  0  0  0
   51.7840   52.4590   22.2830 H   0  0  0  0  0  0  0  0  0  0  0  0
   50.5890   52.0520   20.2670 C   0  0  0  0  0  0  0  0  0  0  0  0
   50.7170   49.5800   20.6060 C   0  0  0  0  0  0  0  0  0  0  0  0
   51.3010   50.9310   21.0250 C   0  0  0  0  0  0  0  0  0  0  0  0
   49.8530   56.8960   20.1380 C   0  0  0  0  0  0  0  0  0  0  0  0
   49.0560   57.2590   21.3900 C   0  0  0  0  0  0  0  0  0  0  0  0
   48.1410   58.3140   21.0840 O   0  0  0  0  0  0  0  0  0  0  0  0
   47.8130   58.4170   19.6980 C   0  0  0  0  0  0  0  0  0  0  0  0
  1  2  1  0  0  0  0
  1 11  1  0  0  0  0
  3  1  2  0  0  0  0
  4  2  1  6  0  0  0
  4 10  1  0  0  0  0
  5  6  1  0  0  0  0
  5  4  1  0  0  0  0
  6  7  1  0  0  0  0
  7  9  2  0  0  0  0
  7 10  1  0  0  0  0
  7  8  2  0  0  0  0
 11 12  1  6  0  0  0
 11 13  1  0  0  0  0
 13 16  1  0  0  0  0
 13 14  1  0  0  0  0
 15 13  1  0  0  0  0
 17 11  1  0  0  0  0
 17 19  1  0  0  0  0
 18 19  1  0  0  0  0
 20  2  1  0  0  0  0
 20 21  1  0  0  0  0
 22 21  1  0  0  0  0
 23 22  1  0  0  0  0
M  END
>  <MODEL>
3

>  <REMARK>
  Name = ZINC37802118
                            x       y       z     vdW  Elec       q    Type
                         _______ _______ _______ _____ _____    ______ ____

>  <TORSDO>
F 8

>  <minimizedAffinity>
-5.9684705069475728

$$$$
ZINC37802118
 OpenBabel10211216093D

 23 23  0  0  1  0  0  0  0  0999 V2000
   48.7760   52.2130   17.0760 C   0  0  0  0  0  0  0  0  0  0  0  0
   49.5680   52.9630   17.8670 N   0  0  0  0  0  0  0  0  0  0  0  0
   47.7570   52.6860   16.6160 O   0  0  0  0  0  0  0  0  0  0  0  0
   50.7160   52.3530   18.5430 C   0  0  1  0  0  0  0  0  0  0  0  0
   51.9130   53.3160   18.4880 C   0  0  0  0  0  0  0  0  0  0  0  0
   53.0030   52.7930   19.4670 C   0  0  0  0  0  0  0  0  0  0  0  0
   51.9530   52.2630   20.8860 S   0  0  0  0  0  0  0  0  0  0  0  0
   52.4000   50.9940   21.3430 O   0  0  0  0  0  0  0  0  0  0  0  0
   51.8440   53.3400   21.8070 O   0  0  0  0  0  0  0  0  0  0  0  0
   50.3470   52.0560   20.0170 C   0  0  0  0  0  0  0  0  0  0  0  0
   49.1540   50.7890   16.7620 C   0  0  1  0  0  0  0  0  0  0  0  0
   48.4660   50.3520   15.4680 C   0  0  0  0  0  0  0  0  0  0  0  0
   50.6120   50.6950   16.5980 N   0  0  0  0  0  0  0  0  0  0  0  0
   51.0650   50.9720   17.4550 H   0  0  0  0  0  0  0  0  0  0  0  0
   50.9050   51.3040   15.8490 H   0  0  0  0  0  0  0  0  0  0  0  0
   50.8640   49.7440   16.3750 H   0  0  0  0  0  0  0  0  0  0  0  0
   48.7100   49.8780   17.9080 C   0  0  0  0  0  0  0  0  0  0  0  0
   46.8570   48.4030   18.7020 C   0  0  0  0  0  0  0  0  0  0  0  0
   47.2280   49.5400   17.7470 C   0  0  0  0  0  0  0  0  0  0  0  0
   49.2820   54.3880   18.0520 C   0  0  0  0  0  0  0  0  0  0  0  0
   48.4890   54.5860   19.3430 C   0  0  0  0  0  0  0  0  0  0  0  0
   49.2600   55.3620   20.2630 O   0  0  0  0  0  0  0  0  0  0  0  0
   50.1020   56.3350   19.6420 C   0  0  0  0  0  0  0  0  0  0  0  0
  1  2  1  0  0  0  0
  2 20  1  0  0  0  0
  3  1  2  0  0  0  0
  4  2  1  1  0  0  0
  4 10  1  0  0  0  0
  5  4  1  0  0  0  0
  5  6  1  0  0  0  0
  6  7  1  0  0  0  0
  7  8  2  0  0  0  0
  7  9  2  0  0  0  0
 10  7  1  0  0  0  0
 11 12  1  6  0  0  0
 11  1  1  0  0  0  0
 11 17  1  0  0  0  0
 13 11  1  0  0  0  0
 13 14  1  0  0  0  0
 15 13  1  0  0  0  0
 16 13  1  0  0  0  0
 19 17  1  0  0  0  0
 19 18  1  0  0  0  0
 20 21  1  0  0  0  0
 21 22  1  0  0  0  0
 23 22  1  0  0  0  0
M  END
>  <MODEL>
4

>  <REMARK>
  Name = ZINC37802118
                            x       y       z     vdW  Elec       q    Type
                         _______ _______ _______ _____ _____    ______ ____

>  <TORSDO>
F 8

>  <minimizedAffinity>
-5.8411445598261276

$$$$
ZINC37802118
 OpenBabel10211216093D

 23 23  0  0  1  0  0  0  0  0999 V2000
   49.8180   56.0570   20.8880 C   0  0  0  0  0  0  0  0  0  0  0  0
   50.7830   55.1380   21.0790 N   0  0  0  0  0  0  0  0  0  0  0  0
   49.6180   56.9100   21.7280 O   0  0  0  0  0  0  0  0  0  0  0  0
   50.9270   54.0200   20.1410 C   0  0  1  0  0  0  0  0  0  0  0  0
   52.3060   54.0940   19.4660 C   0  0  0  0  0  0  0  0  0  0  0  0
   52.5560   52.7480   18.7260 C   0  0  0  0  0  0  0  0  0  0  0  0
   51.8870   51.5560   19.9630 S   0  0  0  0  0  0  0  0  0  0  0  0
   51.0920   50.5900   19.2890 O   0  0  0  0  0  0  0  0  0  0  0  0
   52.9440   51.1250   20.8080 O   0  0  0  0  0  0  0  0  0  0  0  0
   50.7870   52.6840   20.9090 C   0  0  0  0  0  0  0  0  0  0  0  0
   48.9850   56.0270   19.6330 C   0  0  1  0  0  0  0  0  0  0  0  0
   47.8100   56.9970   19.7770 C   0  0  0  0  0  0  0  0  0  0  0  0
   49.8130   56.4280   18.4870 N   0  0  0  0  0  0  0  0  0  0  0  0
   50.6140   56.9440   18.8160 H   0  0  0  0  0  0  0  0  0  0  0  0
   49.2700   57.0090   17.8670 H   0  0  0  0  0  0  0  0  0  0  0  0
   50.1230   55.6050   17.9920 H   0  0  0  0  0  0  0  0  0  0  0  0
   48.4520   54.6110   19.4070 C   0  0  0  0  0  0  0  0  0  0  0  0
   48.5670   52.8110   17.6780 C   0  0  0  0  0  0  0  0  0  0  0  0
   48.4090   54.3160   17.9070 C   0  0  0  0  0  0  0  0  0  0  0  0
   51.6910   55.2540   22.2230 C   0  0  0  0  0  0  0  0  0  0  0  0
   52.3660   56.6260   22.2010 C   0  0  0  0  0  0  0  0  0  0  0  0
   53.3300   56.6670   21.1480 O   0  0  0  0  0  0  0  0  0  0  0  0
   54.1390   57.8440   21.1440 C   0  0  0  0  0  0  0  0  0  0  0  0
  1  2  1  0  0  0  0
  1  3  2  0  0  0  0
  2 20  1  0  0  0  0
  4 10  1  0  0  0  0
  4  2  1  1  0  0  0
  5  4  1  0  0  0  0
  6  5  1  0  0  0  0
  6  7  1  0  0  0  0
  7  9  2  0  0  0  0
  7 10  1  0  0  0  0
  8  7  2  0  0  0  0
 11 13  1  6  0  0  0
 11 12  1  0  0  0  0
 11  1  1  0  0  0  0
 13 14  1  0  0  0  0
 15 13  1  0  0  0  0
 16 13  1  0  0  0  0
 17 11  1  0  0  0  0
 18 19  1  0  0  0  0
 19 17  1  0  0  0  0
 21 20  1  0  0  0  0
 22 21  1  0  0  0  0
 23 22  1  0  0  0  0
M  END
>  <MODEL>
5

>  <REMARK>
  Name = ZINC37802118
                            x       y       z     vdW  Elec       q    Type
                         _______ _______ _______ _____ _____    ______ ____

>  <TORSDO>
F 8

>  <minimizedAffinity>
-5.779763746437304

$$$$
ZINC37802118
 OpenBabel10211216093D

 23 23  0  0  1  0  0  0  0  0999 V2000
   50.2830   51.8640   18.5180 C   0  0  0  0  0  0  0  0  0  0  0  0
   49.1450   51.3210   18.0440 N   0  0  0  0  0  0  0  0  0  0  0  0
   50.4380   53.0670   18.4920 O   0  0  0  0  0  0  0  0  0  0  0  0
   49.0180   49.8650   17.9360 C   0  0  1  0  0  0  0  0  0  0  0  0
   47.5850   49.4480   18.3090 C   0  0  0  0  0  0  0  0  0  0  0  0
   47.3870   47.9640   17.8900 C   0  0  0  0  0  0  0  0  0  0  0  0
   48.2550   47.9550   16.2640 S   0  0  0  0  0  0  0  0  0  0  0  0
   49.0680   46.7930   16.1810 O   0  0  0  0  0  0  0  0  0  0  0  0
   47.3120   48.2230   15.2350 O   0  0  0  0  0  0  0  0  0  0  0  0
   49.3320   49.4270   16.4850 C   0  0  0  0  0  0  0  0  0  0  0  0
   51.3640   50.9780   19.0810 C   0  0  1  0  0  0  0  0  0  0  0  0
   50.7310   49.8830   19.9410 C   0  0  0  0  0  0  0  0  0  0  0  0
   52.1150   50.3620   17.9770 N   0  0  0  0  0  0  0  0  0  0  0  0
   51.4770   49.8750   17.3670 H   0  0  0  0  0  0  0  0  0  0  0  0
   52.7870   49.7100   18.3510 H   0  0  0  0  0  0  0  0  0  0  0  0
   52.5970   51.0800   17.4570 H   0  0  0  0  0  0  0  0  0  0  0  0
   52.3150   51.8150   19.9400 C   0  0  0  0  0  0  0  0  0  0  0  0
   51.5910   53.0550   21.9840 C   0  0  0  0  0  0  0  0  0  0  0  0
   51.9270   51.6760   21.4120 C   0  0  0  0  0  0  0  0  0  0  0  0
   48.0350   52.1860   17.6360 C   0  0  0  0  0  0  0  0  0  0  0  0
   48.1420   52.4820   16.1400 C   0  0  0  0  0  0  0  0  0  0  0  0
   47.5350   53.7450   15.8590 O   0  0  0  0  0  0  0  0  0  0  0  0
   48.0880   54.8340   16.6010 C   0  0  0  0  0  0  0  0  0  0  0  0
  1 11  1  0  0  0  0
  2  1  1  0  0  0  0
  3  1  2  0  0  0  0
  4  2  1  6  0  0  0
  4  5  1  0  0  0  0
  6  5  1  0  0  0  0
  7 10  1  0  0  0  0
  7  6  1  0  0  0  0
  8  7  2  0  0  0  0
  9  7  2  0  0  0  0
 10  4  1  0  0  0  0
 11 13  1  6  0  0  0
 11 17  1  0  0  0  0
 11 12  1  0  0  0  0
 13 15  1  0  0  0  0
 14 13  1  0  0  0  0
 16 13  1  0  0  0  0
 17 19  1  0  0  0  0
 19 18  1  0  0  0  0
 20  2  1  0  0  0  0
 21 20  1  0  0  0  0
 22 21  1  0  0  0  0
 22 23  1  0  0  0  0
M  END
>  <MODEL>
6

>  <REMARK>
  Name = ZINC37802118
                            x       y       z     vdW  Elec       q    Type
                         _______ _______ _______ _____ _____    ______ ____

>  <TORSDO>
F 8

>  <minimizedAffinity>
-5.6334910347778475

$$$$
ZINC37802118
 OpenBabel10211216093D

 23 23  0  0  1  0  0  0  0  0999 V2000
   50.3710   53.6220   18.6430 C   0  0  0  0  0  0  0  0  0  0  0  0
   51.2740   54.0930   19.5260 N   0  0  0  0  0  0  0  0  0  0  0  0
   50.5350   52.5340   18.1310 O   0  0  0  0  0  0  0  0  0  0  0  0
   51.1580   55.4640   20.0310 C   0  0  1  0  0  0  0  0  0  0  0  0
   50.7060   55.4310   21.5000 C   0  0  0  0  0  0  0  0  0  0  0  0
   50.8930   56.8540   22.0980 C   0  0  0  0  0  0  0  0  0  0  0  0
   52.5120   57.3220   21.3510 S   0  0  0  0  0  0  0  0  0  0  0  0
   52.4300   58.6570   20.8710 O   0  0  0  0  0  0  0  0  0  0  0  0
   53.5550   56.9630   22.2470 O   0  0  0  0  0  0  0  0  0  0  0  0
   52.5310   56.1700   19.9190 C   0  0  0  0  0  0  0  0  0  0  0  0
   49.1600   54.4450   18.2920 C   0  0  1  0  0  0  0  0  0  0  0  0
   48.1680   54.4170   19.4560 C   0  0  0  0  0  0  0  0  0  0  0  0
   49.5700   55.8330   18.0310 N   0  0  0  0  0  0  0  0  0  0  0  0
   50.5690   55.9140   18.1440 H   0  0  0  0  0  0  0  0  0  0  0  0
   49.1060   56.4480   18.6810 H   0  0  0  0  0  0  0  0  0  0  0  0
   49.3160   56.0870   17.0880 H   0  0  0  0  0  0  0  0  0  0  0  0
   48.4940   53.8670   17.0420 C   0  0  0  0  0  0  0  0  0  0  0  0
   47.5020   51.5890   16.7870 C   0  0  0  0  0  0  0  0  0  0  0  0
   47.3370   52.9560   17.4540 C   0  0  0  0  0  0  0  0  0  0  0  0
   52.3700   53.2340   19.9820 C   0  0  0  0  0  0  0  0  0  0  0  0
   51.9270   52.4550   21.2200 C   0  0  0  0  0  0  0  0  0  0  0  0
   52.3690   51.1000   21.1160 O   0  0  0  0  0  0  0  0  0  0  0  0
   51.4040   50.2140   20.5470 C   0  0  0  0  0  0  0  0  0  0  0  0
  1  2  1  0  0  0  0
  2 20  1  0  0  0  0
  3  1  2  0  0  0  0
  4  2  1  1  0  0  0
  4  5  1  0  0  0  0
  5  6  1  0  0  0  0
  7  6  1  0  0  0  0
  7  9  2  0  0  0  0
  8  7  2  0  0  0  0
 10  4  1  0  0  0  0
 10  7  1  0  0  0  0
 11 17  1  6  0  0  0
 11  1  1  0  0  0  0
 11 12  1  0  0  0  0
 13 14  1  0  0  0  0
 13 11  1  0  0  0  0
 13 15  1  0  0  0  0
 16 13  1  0  0  0  0
 17 19  1  0  0  0  0
 18 19  1  0  0  0  0
 20 21  1  0  0  0  0
 22 21  1  0  0  0  0
 23 22  1  0  0  0  0
M  END
>  <MODEL>
7

>  <REMARK>
  Name = ZINC37802118
                            x       y       z     vdW  Elec       q    Type
                         _______ _______ _______ _____ _____    ______ ____

>  <TORSDO>
F 8

>  <minimizedAffinity>
-5.5940872893948708

$$$$
ZINC37802118
 OpenBabel10211216093D

 23 23  0  0  1  0  0  0  0  0999 V2000
   47.8970   50.9360   17.4820 C   0  0  0  0  0  0  0  0  0  0  0  0
   48.9930   51.6670   17.7620 N   0  0  0  0  0  0  0  0  0  0  0  0
   46.9040   51.4750   17.0420 O   0  0  0  0  0  0  0  0  0  0  0  0
   50.1390   51.0450   18.4320 C   0  0  1  0  0  0  0  0  0  0  0  0
   51.3140   50.9440   17.4470 C   0  0  0  0  0  0  0  0  0  0  0  0
   52.5930   50.5790   18.2530 C   0  0  0  0  0  0  0  0  0  0  0  0
   52.3640   51.6390   19.7430 S   0  0  0  0  0  0  0  0  0  0  0  0
   52.6660   50.8760   20.9030 O   0  0  0  0  0  0  0  0  0  0  0  0
   53.0230   52.8810   19.5330 O   0  0  0  0  0  0  0  0  0  0  0  0
   50.5480   51.9030   19.6530 C   0  0  0  0  0  0  0  0  0  0  0  0
   47.9050   49.4470   17.7160 C   0  0  1  0  0  0  0  0  0  0  0  0
   48.6550   48.7550   16.5760 C   0  0  0  0  0  0  0  0  0  0  0  0
   48.5740   49.1560   18.9920 N   0  0  0  0  0  0  0  0  0  0  0  0
   48.6580   48.1570   19.1060 H   0  0  0  0  0  0  0  0  0  0  0  0
   48.0310   49.5370   19.7510 H   0  0  0  0  0  0  0  0  0  0  0  0
   49.4930   49.5730   18.9920 H   0  0  0  0  0  0  0  0  0  0  0  0
   46.4650   48.9310   17.7660 C   0  0  0  0  0  0  0  0  0  0  0  0
   44.8940   47.3840   18.9390 C   0  0  0  0  0  0  0  0  0  0  0  0
   46.3160   47.9480   18.9280 C   0  0  0  0  0  0  0  0  0  0  0  0
   49.0410   53.0860   17.3960 C   0  0  0  0  0  0  0  0  0  0  0  0
   48.3740   53.9180   18.4920 C   0  0  0  0  0  0  0  0  0  0  0  0
   49.0810   55.1490   18.6530 O   0  0  0  0  0  0  0  0  0  0  0  0
   48.9530   55.7280   19.9530 C   0  0  0  0  0  0  0  0  0  0  0  0
  1 11  1  0  0  0  0
  1  2  1  0  0  0  0
  3  1  2  0  0  0  0
  4  2  1  6  0  0  0
  4 10  1  0  0  0  0
  5  6  1  0  0  0  0
  5  4  1  0  0  0  0
  6  7  1  0  0  0  0
  7  8  2  0  0  0  0
  9  7  2  0  0  0  0
 10  7  1  0  0  0  0
 11 12  1  6  0  0  0
 11 17  1  0  0  0  0
 11 13  1  0  0  0  0
 13 16  1  0  0  0  0
 13 14  1  0  0  0  0
 13 15  1  0  0  0  0
 17 19  1  0  0  0  0
 19 18  1  0  0  0  0
 20  2  1  0  0  0  0
 20 21  1  0  0  0  0
 21 22  1  0  0  0  0
 22 23  1  0  0  0  0
M  END
>  <MODEL>
8

>  <REMARK>
  Name = ZINC37802118
                            x       y       z     vdW  Elec       q    Type
                         _______ _______ _______ _____ _____    ______ ____

>  <TORSDO>
F 8

>  <minimizedAffinity>
-5.4548934071825759

$$$$
ZINC37802118
 OpenBabel10211216093D

 23 23  0  0  1  0  0  0  0  0999 V2000
   49.0020   52.0660   17.9950 C   0  0  0  0  0  0  0  0  0  0  0  0
   49.2190   53.2380   18.6220 N   0  0  0  0  0  0  0  0  0  0  0  0
   47.9680   51.8870   17.3850 O   0  0  0  0  0  0  0  0  0  0  0  0
   50.3950   53.4030   19.4810 C   0  0  1  0  0  0  0  0  0  0  0  0
   51.3320   54.4570   18.8690 C   0  0  0  0  0  0  0  0  0  0  0  0
   52.3970   54.8380   19.9360 C   0  0  0  0  0  0  0  0  0  0  0  0
   51.3470   54.9010   21.4500 S   0  0  0  0  0  0  0  0  0  0  0  0
   52.0240   54.2380   22.5090 O   0  0  0  0  0  0  0  0  0  0  0  0
   50.8870   56.2320   21.6390 O   0  0  0  0  0  0  0  0  0  0  0  0
   49.9420   53.8570   20.8900 C   0  0  0  0  0  0  0  0  0  0  0  0
   50.0420   50.9770   18.0500 C   0  0  1  0  0  0  0  0  0  0  0  0
   49.4520   49.6790   17.4950 C   0  0  0  0  0  0  0  0  0  0  0  0
   51.2060   51.3710   17.2430 N   0  0  0  0  0  0  0  0  0  0  0  0
   52.0440   50.9890   17.6550 H   0  0  0  0  0  0  0  0  0  0  0  0
   51.2710   52.3770   17.2160 H   0  0  0  0  0  0  0  0  0  0  0  0
   51.1000   51.0150   16.3050 H   0  0  0  0  0  0  0  0  0  0  0  0
   50.4770   50.7600   19.5010 C   0  0  0  0  0  0  0  0  0  0  0  0
   50.3820   48.7320   20.9570 C   0  0  0  0  0  0  0  0  0  0  0  0
   50.9720   49.3230   19.6750 C   0  0  0  0  0  0  0  0  0  0  0  0
   48.2800   54.3490   18.4450 C   0  0  0  0  0  0  0  0  0  0  0  0
   48.5230   55.0110   17.0880 C   0  0  0  0  0  0  0  0  0  0  0  0
   48.4240   56.4300   17.2250 O   0  0  0  0  0  0  0  0  0  0  0  0
   48.4850   56.8910   18.5760 C   0  0  0  0  0  0  0  0  0  0  0  0
  1 11  1  0  0  0  0
  1  2  1  0  0  0  0
  3  1  2  0  0  0  0
  4  2  1  6  0  0  0
  4 10  1  0  0  0  0
  5  4  1  0  0  0  0
  5  6  1  0  0  0  0
  6  7  1  0  0  0  0
  7  9  2  0  0  0  0
  7  8  2  0  0  0  0
 10  7  1  0  0  0  0
 11 13  1  6  0  0  0
 11 17  1  0  0  0  0
 12 11  1  0  0  0  0
 13 14  1  0  0  0  0
 15 13  1  0  0  0  0
 16 13  1  0  0  0  0
 17 19  1  0  0  0  0
 19 18  1  0  0  0  0
 20  2  1  0  0  0  0
 21 22  1  0  0  0  0
 21 20  1  0  0  0  0
 22 23  1  0  0  0  0
M  END
>  <MODEL>
9

>  <REMARK>
  Name = ZINC37802118
                            x       y       z     vdW  Elec       q    Type
                         _______ _______ _______ _____ _____    ______ ____

>  <TORSDO>
F 8

>  <minimizedAffinity>
-5.1600017164176606

$$$$
ZINC66494959
 OpenBabel10211216113D

 24 24  0  0  0  0  0  0  0  0999 V2000
   52.1990   54.4760   20.7310 C   0  0  0  0  0  0  0  0  0  0  0  0
   52.0820   53.8710   19.3280 C   0  0  0  0  0  0  0  0  0  0  0  0
   52.5010   52.4000   19.3780 C   0  0  0  0  0  0  0  0  0  0  0  0
   51.6270   51.6690   20.3030 N   0  0  0  0  0  0  0  0  0  0  0  0
   50.6670   51.7770   20.0130 H   0  0  0  0  0  0  0  0  0  0  0  0
   51.7870   52.1980   21.6630 C   0  0  0  0  0  0  0  0  0  0  0  0
   51.3410   53.6610   21.7020 C   0  0  0  0  0  0  0  0  0  0  0  0
   51.0180   56.3980   21.7480 N   0  0  0  0  0  0  0  0  0  0  0  0
   50.8330   55.8360   22.5170 H   0  0  0  0  0  0  0  0  0  0  0  0
   51.7120   55.9030   20.7050 C   0  0  0  0  0  0  0  0  0  0  0  0
   51.9450   56.6050   19.7430 O   0  0  0  0  0  0  0  0  0  0  0  0
   50.5460   57.7840   21.7230 C   0  0  0  0  0  0  0  0  0  0  0  0
   49.0160   57.8010   21.6850 C   0  0  0  0  0  0  0  0  0  0  0  0
   48.0400   56.2770   19.9630 C   0  0  0  0  0  0  0  0  0  0  0  0
   48.5390   57.6970   20.2350 C   0  0  0  0  0  0  0  0  0  0  0  0
   47.4010   58.6930   20.0010 C   0  0  0  0  0  0  0  0  0  0  0  0
   51.9840   50.2440   20.2880 C   0  0  0  0  0  0  0  0  0  0  0  0
   50.7600   49.4230   19.9780 C   0  0  0  0  0  0  0  0  0  0  0  0
   50.2450   49.4240   18.7320 N   0  0  0  0  0  0  0  0  0  0  0  0
   50.6620   49.9550   18.0360 H   0  0  0  0  0  0  0  0  0  0  0  0
   50.2370   48.7600   20.8490 O   0  0  0  0  0  0  0  0  0  0  0  0
   49.0540   48.6260   18.4300 C   0  0  0  0  0  0  0  0  0  0  0  0
   48.0070   49.4970   17.8730 C   0  0  0  0  0  0  0  0  0  0  0  0
   47.1990   50.1700   17.4430 N   0  0  0  0  0  0  0  0  0  0  0  0
  1  7  1  0  0  0  0
  2  3  1  0  0  0  0
  2  1  1  0  0  0  0
  3  4  1  0  0  0  0
  4  6  1  0  0  0  0
  5  4  1  0  0  0  0
  6  7  1  0  0  0  0
  8  9  1  0  0  0  0
 10  1  1  0  0  0  0
 10  8  1  0  0  0  0
 11 10  2  0  0  0  0
 12  8  1  0  0  0  0
 13 12  1  0  0  0  0
 14 15  1  0  0  0  0
 15 13  1  0  0  0  0
 16 15  1  0  0  0  0
 17  4  1  0  0  0  0
 18 17  1  0  0  0  0
 18 21  2  0  0  0  0
 19 18  1  0  0  0  0
 20 19  1  0  0  0  0
 22 19  1  0  0  0  0
 23 22  1  0  0  0  0
 24 23  3  0  0  0  0
M  END
>  <MODEL>
1

>  <REMARK>
  Name = ZINC66494959
                            x       y       z     vdW  Elec       q    Type
                         _______ _______ _______ _____ _____    ______ ____

>  <TORSDO>
F 8

>  <minimizedAffinity>
-6.7971151056568155

$$$$
ZINC66494959
 OpenBabel10211216113D

 24 24  0  0  0  0  0  0  0  0999 V2000
   50.3250   50.9150   18.3470 C   0  0  0  0  0  0  0  0  0  0  0  0
   51.3630   50.7870   19.4670 C   0  0  0  0  0  0  0  0  0  0  0  0
   52.3410   51.9610   19.3840 C   0  0  0  0  0  0  0  0  0  0  0  0
   51.6090   53.2240   19.5360 N   0  0  0  0  0  0  0  0  0  0  0  0
   51.1030   53.2170   20.4080 H   0  0  0  0  0  0  0  0  0  0  0  0
   50.6620   53.3870   18.4260 C   0  0  0  0  0  0  0  0  0  0  0  0
   49.6200   52.2690   18.4710 C   0  0  0  0  0  0  0  0  0  0  0  0
   48.0510   49.9920   18.0340 N   0  0  0  0  0  0  0  0  0  0  0  0
   47.7950   50.8410   17.6400 H   0  0  0  0  0  0  0  0  0  0  0  0
   49.3120   49.8060   18.4710 C   0  0  0  0  0  0  0  0  0  0  0  0
   49.6330   48.7450   18.9640 O   0  0  0  0  0  0  0  0  0  0  0  0
   47.0670   48.9140   18.1550 C   0  0  0  0  0  0  0  0  0  0  0  0
   45.7600   49.3380   17.4820 C   0  0  0  0  0  0  0  0  0  0  0  0
   44.4510   47.4450   16.5100 C   0  0  0  0  0  0  0  0  0  0  0  0
   44.6790   48.2940   17.7630 C   0  0  0  0  0  0  0  0  0  0  0  0
   45.1270   47.3930   18.9150 C   0  0  0  0  0  0  0  0  0  0  0  0
   52.5600   54.3430   19.5330 C   0  0  0  0  0  0  0  0  0  0  0  0
   52.1450   55.3580   20.5660 C   0  0  0  0  0  0  0  0  0  0  0  0
   51.8740   56.6260   20.1940 N   0  0  0  0  0  0  0  0  0  0  0  0
   51.9480   56.8840   19.2620 H   0  0  0  0  0  0  0  0  0  0  0  0
   52.0540   55.0360   21.7310 O   0  0  0  0  0  0  0  0  0  0  0  0
   51.4710   57.6140   21.1980 C   0  0  0  0  0  0  0  0  0  0  0  0
   52.6580   58.3360   21.6820 C   0  0  0  0  0  0  0  0  0  0  0  0
   53.5740   58.8940   22.0560 N   0  0  0  0  0  0  0  0  0  0  0  0
  1  7  1  0  0  0  0
  1 10  1  0  0  0  0
  1  2  1  0  0  0  0
  3  2  1  0  0  0  0
  3  4  1  0  0  0  0
  4  5  1  0  0  0  0
  6  7  1  0  0  0  0
  6  4  1  0  0  0  0
  8 12  1  0  0  0  0
  8 10  1  0  0  0  0
  9  8  1  0  0  0  0
 10 11  2  0  0  0  0
 13 15  1  0  0  0  0
 13 12  1  0  0  0  0
 14 15  1  0  0  0  0
 15 16  1  0  0  0  0
 17  4  1  0  0  0  0
 17 18  1  0  0  0  0
 18 21  2  0  0  0  0
 19 18  1  0  0  0  0
 19 22  1  0  0  0  0
 20 19  1  0  0  0  0
 22 23  1  0  0  0  0
 23 24  3  0  0  0  0
M  END
>  <MODEL>
2

>  <REMARK>
  Name = ZINC66494959
                            x       y       z     vdW  Elec       q    Type
                         _______ _______ _______ _____ _____    ______ ____

>  <TORSDO>
F 8

>  <minimizedAffinity>
-6.7708065311295567

$$$$
ZINC66494959
 OpenBabel10211216113D

 24 24  0  0  0  0  0  0  0  0999 V2000
   49.7280   49.2650   18.4950 C   0  0  0  0  0  0  0  0  0  0  0  0
   50.1000   49.1080   19.9720 C   0  0  0  0  0  0  0  0  0  0  0  0
   51.3330   49.9640   20.2740 C   0  0  0  0  0  0  0  0  0  0  0  0
   51.0380   51.3720   19.9890 N   0  0  0  0  0  0  0  0  0  0  0  0
   50.2370   51.6630   20.5290 H   0  0  0  0  0  0  0  0  0  0  0  0
   50.7490   51.5410   18.5600 C   0  0  0  0  0  0  0  0  0  0  0  0
   49.4950   50.7470   18.1910 C   0  0  0  0  0  0  0  0  0  0  0  0
   47.2910   48.9010   18.7180 N   0  0  0  0  0  0  0  0  0  0  0  0
   47.2540   49.6990   19.2680 H   0  0  0  0  0  0  0  0  0  0  0  0
   48.4680   48.4880   18.2090 C   0  0  0  0  0  0  0  0  0  0  0  0
   48.5150   47.4890   17.5210 O   0  0  0  0  0  0  0  0  0  0  0  0
   46.0670   48.1450   18.4400 C   0  0  0  0  0  0  0  0  0  0  0  0
   45.1750   48.9490   17.4920 C   0  0  0  0  0  0  0  0  0  0  0  0
   46.1120   48.4810   15.2240 C   0  0  0  0  0  0  0  0  0  0  0  0
   44.9720   48.1660   16.1940 C   0  0  0  0  0  0  0  0  0  0  0  0
   44.9620   46.6660   16.5000 C   0  0  0  0  0  0  0  0  0  0  0  0
   52.1970   52.1980   20.3540 C   0  0  0  0  0  0  0  0  0  0  0  0
   51.7540   53.3130   21.2640 C   0  0  0  0  0  0  0  0  0  0  0  0
   51.8150   54.5920   20.8430 N   0  0  0  0  0  0  0  0  0  0  0  0
   52.1450   54.7940   19.9530 H   0  0  0  0  0  0  0  0  0  0  0  0
   51.3420   53.0600   22.3770 O   0  0  0  0  0  0  0  0  0  0  0  0
   51.3850   55.6770   21.7290 C   0  0  0  0  0  0  0  0  0  0  0  0
   52.4870   56.6380   21.9000 C   0  0  0  0  0  0  0  0  0  0  0  0
   53.3360   57.3800   22.0330 N   0  0  0  0  0  0  0  0  0  0  0  0
  1  2  1  0  0  0  0
  2  3  1  0  0  0  0
  4  3  1  0  0  0  0
  4 17  1  0  0  0  0
  4  5  1  0  0  0  0
  6  4  1  0  0  0  0
  7  1  1  0  0  0  0
  7  6  1  0  0  0  0
  8  9  1  0  0  0  0
 10  1  1  0  0  0  0
 10  8  1  0  0  0  0
 11 10  2  0  0  0  0
 12  8  1  0  0  0  0
 13 12  1  0  0  0  0
 14 15  1  0  0  0  0
 15 16  1  0  0  0  0
 15 13  1  0  0  0  0
 17 18  1  0  0  0  0
 18 21  2  0  0  0  0
 19 18  1  0  0  0  0
 19 22  1  0  0  0  0
 20 19  1  0  0  0  0
 22 23  1  0  0  0  0
 23 24  3  0  0  0  0
M  END
>  <MODEL>
3

>  <REMARK>
  Name = ZINC66494959
                            x       y       z     vdW  Elec       q    Type
                         _______ _______ _______ _____ _____    ______ ____

>  <TORSDO>
F 8

>  <minimizedAffinity>
-6.6971683561871584

$$$$
ZINC66494959
 OpenBabel10211216113D

 24 24  0  0  0  0  0  0  0  0999 V2000
   51.8850   54.1960   21.1450 C   0  0  0  0  0  0  0  0  0  0  0  0
   51.0900   54.0740   19.8410 C   0  0  0  0  0  0  0  0  0  0  0  0
   51.2950   52.6760   19.2550 C   0  0  0  0  0  0  0  0  0  0  0  0
   50.8260   51.6660   20.2110 N   0  0  0  0  0  0  0  0  0  0  0  0
   49.8590   51.8410   20.4360 H   0  0  0  0  0  0  0  0  0  0  0  0
   51.6310   51.7300   21.4360 C   0  0  0  0  0  0  0  0  0  0  0  0
   51.4400   53.0910   22.1080 C   0  0  0  0  0  0  0  0  0  0  0  0
   50.7930   56.4150   21.1680 N   0  0  0  0  0  0  0  0  0  0  0  0
   50.3610   56.1760   20.3330 H   0  0  0  0  0  0  0  0  0  0  0  0
   51.6250   55.5430   21.7700 C   0  0  0  0  0  0  0  0  0  0  0  0
   52.1660   55.8410   22.8140 O   0  0  0  0  0  0  0  0  0  0  0  0
   50.5410   57.7240   21.7740 C   0  0  0  0  0  0  0  0  0  0  0  0
   49.0410   58.0240   21.7370 C   0  0  0  0  0  0  0  0  0  0  0  0
   47.6450   56.5800   20.2520 C   0  0  0  0  0  0  0  0  0  0  0  0
   48.5170   57.8350   20.3130 C   0  0  0  0  0  0  0  0  0  0  0  0
   47.6850   59.0550   19.9100 C   0  0  0  0  0  0  0  0  0  0  0  0
   50.9530   50.3310   19.6120 C   0  0  0  0  0  0  0  0  0  0  0  0
   49.9590   50.1860   18.4900 C   0  0  0  0  0  0  0  0  0  0  0  0
   50.3900   50.0920   17.2160 N   0  0  0  0  0  0  0  0  0  0  0  0
   51.3400   50.1180   17.0220 H   0  0  0  0  0  0  0  0  0  0  0  0
   48.7710   50.1540   18.7320 O   0  0  0  0  0  0  0  0  0  0  0  0
   49.4230   49.9520   16.1240 C   0  0  0  0  0  0  0  0  0  0  0  0
   50.1400   49.7080   14.8610 C   0  0  0  0  0  0  0  0  0  0  0  0
   50.6920   49.5180   13.8880 N   0  0  0  0  0  0  0  0  0  0  0  0
  1 10  1  0  0  0  0
  1  7  1  0  0  0  0
  2  1  1  0  0  0  0
  3  2  1  0  0  0  0
  3  4  1  0  0  0  0
  4  5  1  0  0  0  0
  4  6  1  0  0  0  0
  6  7  1  0  0  0  0
  8 10  1  0  0  0  0
  8 12  1  0  0  0  0
  9  8  1  0  0  0  0
 10 11  2  0  0  0  0
 13 12  1  0  0  0  0
 14 15  1  0  0  0  0
 15 13  1  0  0  0  0
 16 15  1  0  0  0  0
 17  4  1  0  0  0  0
 18 21  2  0  0  0  0
 18 17  1  0  0  0  0
 19 18  1  0  0  0  0
 20 19  1  0  0  0  0
 22 19  1  0  0  0  0
 23 22  1  0  0  0  0
 24 23  3  0  0  0  0
M  END
>  <MODEL>
4

>  <REMARK>
  Name = ZINC66494959
                            x       y       z     vdW  Elec       q    Type
                         _______ _______ _______ _____ _____    ______ ____

>  <TORSDO>
F 8

>  <minimizedAffinity>
-6.6623604249913839

$$$$
ZINC66494959
 OpenBabel10211216113D

 24 24  0  0  0  0  0  0  0  0999 V2000
   50.8520   52.9090   19.0150 C   0  0  0  0  0  0  0  0  0  0  0  0
   49.8110   52.4640   17.9840 C   0  0  0  0  0  0  0  0  0  0  0  0
   49.9280   50.9540   17.7690 C   0  0  0  0  0  0  0  0  0  0  0  0
   49.6910   50.2550   19.0370 N   0  0  0  0  0  0  0  0  0  0  0  0
   48.7870   50.5150   19.4000 H   0  0  0  0  0  0  0  0  0  0  0  0
   50.7290   50.6230   20.0090 C   0  0  0  0  0  0  0  0  0  0  0  0
   50.6440   52.1200   20.3100 C   0  0  0  0  0  0  0  0  0  0  0  0
   49.7010   54.8130   20.0960 N   0  0  0  0  0  0  0  0  0  0  0  0
   49.0930   54.1750   20.5000 H   0  0  0  0  0  0  0  0  0  0  0  0
   50.6910   54.3820   19.2900 C   0  0  0  0  0  0  0  0  0  0  0  0
   51.4520   55.1800   18.7840 O   0  0  0  0  0  0  0  0  0  0  0  0
   49.5440   56.2450   20.3630 C   0  0  0  0  0  0  0  0  0  0  0  0
   48.1530   56.6980   19.9160 C   0  0  0  0  0  0  0  0  0  0  0  0
   48.8210   58.2650   21.7440 C   0  0  0  0  0  0  0  0  0  0  0  0
   47.7100   57.8950   20.7580 C   0  0  0  0  0  0  0  0  0  0  0  0
   47.4250   59.0870   19.8410 C   0  0  0  0  0  0  0  0  0  0  0  0
   49.7280   48.8050   18.8110 C   0  0  0  0  0  0  0  0  0  0  0  0
   48.4310   48.3600   18.1870 C   0  0  0  0  0  0  0  0  0  0  0  0
   47.2580   48.8090   18.6790 N   0  0  0  0  0  0  0  0  0  0  0  0
   47.2500   49.4180   19.4340 H   0  0  0  0  0  0  0  0  0  0  0  0
   48.4400   47.5980   17.2440 O   0  0  0  0  0  0  0  0  0  0  0  0
   45.9960   48.3770   18.0730 C   0  0  0  0  0  0  0  0  0  0  0  0
   45.2680   47.5140   19.0170 C   0  0  0  0  0  0  0  0  0  0  0  0
   44.7070   46.8470   19.7450 N   0  0  0  0  0  0  0  0  0  0  0  0
  1 10  1  0  0  0  0
  1  7  1  0  0  0  0
  2  1  1  0  0  0  0
  3  2  1  0  0  0  0
  3  4  1  0  0  0  0
  4  5  1  0  0  0  0
  4  6  1  0  0  0  0
  6  7  1  0  0  0  0
  8 12  1  0  0  0  0
  8  9  1  0  0  0  0
 10  8  1  0  0  0  0
 11 10  2  0  0  0  0
 13 12  1  0  0  0  0
 13 15  1  0  0  0  0
 15 14  1  0  0  0  0
 16 15  1  0  0  0  0
 17  4  1  0  0  0  0
 18 19  1  0  0  0  0
 18 17  1  0  0  0  0
 19 20  1  0  0  0  0
 21 18  2  0  0  0  0
 22 19  1  0  0  0  0
 22 23  1  0  0  0  0
 23 24  3  0  0  0  0
M  END
>  <MODEL>
5

>  <REMARK>
  Name = ZINC66494959
                            x       y       z     vdW  Elec       q    Type
                         _______ _______ _______ _____ _____    ______ ____

>  <TORSDO>
F 8

>  <minimizedAffinity>
-6.661278611657111

$$$$
ZINC66494959
 OpenBabel10211216113D

 24 24  0  0  0  0  0  0  0  0999 V2000
   51.3980   50.8630   19.6810 C   0  0  0  0  0  0  0  0  0  0  0  0
   50.9820   51.6490   20.9280 C   0  0  0  0  0  0  0  0  0  0  0  0
   51.8720   52.8860   21.0640 C   0  0  0  0  0  0  0  0  0  0  0  0
   51.7210   53.7350   19.8770 N   0  0  0  0  0  0  0  0  0  0  0  0
   50.7500   53.9810   19.7610 H   0  0  0  0  0  0  0  0  0  0  0  0
   52.1860   53.0120   18.6860 C   0  0  0  0  0  0  0  0  0  0  0  0
   51.3090   51.7800   18.4580 C   0  0  0  0  0  0  0  0  0  0  0  0
   49.8090   49.5260   18.3370 N   0  0  0  0  0  0  0  0  0  0  0  0
   49.9240   50.1690   17.6200 H   0  0  0  0  0  0  0  0  0  0  0  0
   50.4750   49.6850   19.4970 C   0  0  0  0  0  0  0  0  0  0  0  0
   50.3320   48.8820   20.3950 O   0  0  0  0  0  0  0  0  0  0  0  0
   48.9120   48.3820   18.1590 C   0  0  0  0  0  0  0  0  0  0  0  0
   47.4850   48.7890   18.5310 C   0  0  0  0  0  0  0  0  0  0  0  0
   47.1960   48.4870   16.0680 C   0  0  0  0  0  0  0  0  0  0  0  0
   46.7590   49.3020   17.2860 C   0  0  0  0  0  0  0  0  0  0  0  0
   45.2480   49.1570   17.4820 C   0  0  0  0  0  0  0  0  0  0  0  0
   52.5170   54.9580   20.0460 C   0  0  0  0  0  0  0  0  0  0  0  0
   51.8440   55.8610   21.0460 C   0  0  0  0  0  0  0  0  0  0  0  0
   50.6240   56.3700   20.7810 N   0  0  0  0  0  0  0  0  0  0  0  0
   50.1800   56.1540   19.9460 H   0  0  0  0  0  0  0  0  0  0  0  0
   52.4000   56.1310   22.0900 O   0  0  0  0  0  0  0  0  0  0  0  0
   49.9690   57.2490   21.7540 C   0  0  0  0  0  0  0  0  0  0  0  0
   48.6430   57.6380   21.2490 C   0  0  0  0  0  0  0  0  0  0  0  0
   47.6190   57.9390   20.8590 N   0  0  0  0  0  0  0  0  0  0  0  0
  1  2  1  0  0  0  0
  2  3  1  0  0  0  0
  4 17  1  0  0  0  0
  4  3  1  0  0  0  0
  5  4  1  0  0  0  0
  6  4  1  0  0  0  0
  7  6  1  0  0  0  0
  7  1  1  0  0  0  0
  8 10  1  0  0  0  0
  9  8  1  0  0  0  0
 10  1  1  0  0  0  0
 10 11  2  0  0  0  0
 12  8  1  0  0  0  0
 12 13  1  0  0  0  0
 14 15  1  0  0  0  0
 15 16  1  0  0  0  0
 15 13  1  0  0  0  0
 17 18  1  0  0  0  0
 18 21  2  0  0  0  0
 19 18  1  0  0  0  0
 19 22  1  0  0  0  0
 20 19  1  0  0  0  0
 23 22  1  0  0  0  0
 24 23  3  0  0  0  0
M  END
>  <MODEL>
6

>  <REMARK>
  Name = ZINC66494959
                            x       y       z     vdW  Elec       q    Type
                         _______ _______ _______ _____ _____    ______ ____

>  <TORSDO>
F 8

>  <minimizedAffinity>
-6.6492203536489152

$$$$
ZINC66494959
 OpenBabel10211216113D

 24 24  0  0  0  0  0  0  0  0999 V2000
   49.1360   52.0620   17.1080 C   0  0  0  0  0  0  0  0  0  0  0  0
   50.0220   52.2390   18.3450 C   0  0  0  0  0  0  0  0  0  0  0  0
   50.4600   53.7020   18.4460 C   0  0  0  0  0  0  0  0  0  0  0  0
   49.2780   54.5640   18.5620 N   0  0  0  0  0  0  0  0  0  0  0  0
   48.7320   54.2790   19.3600 H   0  0  0  0  0  0  0  0  0  0  0  0
   48.4600   54.4530   17.3480 C   0  0  0  0  0  0  0  0  0  0  0  0
   47.9450   53.0190   17.2040 C   0  0  0  0  0  0  0  0  0  0  0  0
   48.6630   49.8690   18.1500 N   0  0  0  0  0  0  0  0  0  0  0  0
   49.0020   50.2270   18.9850 H   0  0  0  0  0  0  0  0  0  0  0  0
   48.6370   50.6410   17.0470 C   0  0  0  0  0  0  0  0  0  0  0  0
   48.2130   50.1930   16.0020 O   0  0  0  0  0  0  0  0  0  0  0  0
   48.1780   48.4880   18.0900 C   0  0  0  0  0  0  0  0  0  0  0  0
   46.9930   48.3200   19.0430 C   0  0  0  0  0  0  0  0  0  0  0  0
   44.7380   47.2560   19.1980 C   0  0  0  0  0  0  0  0  0  0  0  0
   45.7560   47.8930   18.2510 C   0  0  0  0  0  0  0  0  0  0  0  0
   45.1320   49.1190   17.5800 C   0  0  0  0  0  0  0  0  0  0  0  0
   49.7050   55.9580   18.7360 C   0  0  0  0  0  0  0  0  0  0  0  0
   50.3870   56.1120   20.0700 C   0  0  0  0  0  0  0  0  0  0  0  0
   51.6440   56.5950   20.1330 N   0  0  0  0  0  0  0  0  0  0  0  0
   52.1090   56.8440   19.3190 H   0  0  0  0  0  0  0  0  0  0  0  0
   49.8060   55.8010   21.0880 O   0  0  0  0  0  0  0  0  0  0  0  0
   52.3080   56.7450   21.4310 C   0  0  0  0  0  0  0  0  0  0  0  0
   53.4550   57.6570   21.2940 C   0  0  0  0  0  0  0  0  0  0  0  0
   54.3400   58.3610   21.1890 N   0  0  0  0  0  0  0  0  0  0  0  0
  1  7  1  0  0  0  0
  1  2  1  0  0  0  0
  2  3  1  0  0  0  0
  3  4  1  0  0  0  0
  4 17  1  0  0  0  0
  4  5  1  0  0  0  0
  6  4  1  0  0  0  0
  7  6  1  0  0  0  0
  8  9  1  0  0  0  0
 10  1  1  0  0  0  0
 10  8  1  0  0  0  0
 11 10  2  0  0  0  0
 12  8  1  0  0  0  0
 12 13  1  0  0  0  0
 15 13  1  0  0  0  0
 15 14  1  0  0  0  0
 16 15  1  0  0  0  0
 17 18  1  0  0  0  0
 18 19  1  0  0  0  0
 18 21  2  0  0  0  0
 19 22  1  0  0  0  0
 20 19  1  0  0  0  0
 23 22  1  0  0  0  0
 24 23  3  0  0  0  0
M  END
>  <MODEL>
7

>  <REMARK>
  Name = ZINC66494959
                            x       y       z     vdW  Elec       q    Type
                         _______ _______ _______ _____ _____    ______ ____

>  <TORSDO>
F 8

>  <minimizedAffinity>
-6.5267284132176497

$$$$
ZINC66494959
 OpenBabel10211216113D

 24 24  0  0  0  0  0  0  0  0999 V2000
   49.2090   57.4740   20.3550 C   0  0  0  0  0  0  0  0  0  0  0  0
   49.0030   56.0060   19.9690 C   0  0  0  0  0  0  0  0  0  0  0  0
   50.2940   55.2290   20.2370 C   0  0  0  0  0  0  0  0  0  0  0  0
   50.6370   55.3180   21.6610 N   0  0  0  0  0  0  0  0  0  0  0  0
   49.8670   54.9720   22.2140 H   0  0  0  0  0  0  0  0  0  0  0  0
   50.9050   56.7160   22.0220 C   0  0  0  0  0  0  0  0  0  0  0  0
   49.6390   57.5510   21.8220 C   0  0  0  0  0  0  0  0  0  0  0  0
   47.8810   59.3130   19.3680 N   0  0  0  0  0  0  0  0  0  0  0  0
   48.6860   59.6070   18.9120 H   0  0  0  0  0  0  0  0  0  0  0  0
   47.9180   58.2290   20.1680 C   0  0  0  0  0  0  0  0  0  0  0  0
   46.9130   57.8610   20.7380 O   0  0  0  0  0  0  0  0  0  0  0  0
   46.6270   60.0470   19.1870 C   0  0  0  0  0  0  0  0  0  0  0  0
   46.8470   61.2000   18.2060 C   0  0  0  0  0  0  0  0  0  0  0  0
   46.8130   63.6840   17.9380 C   0  0  0  0  0  0  0  0  0  0  0  0
   46.6790   62.5330   18.9370 C   0  0  0  0  0  0  0  0  0  0  0  0
   45.2970   62.5840   19.5930 C   0  0  0  0  0  0  0  0  0  0  0  0
   51.8320   54.5080   21.9280 C   0  0  0  0  0  0  0  0  0  0  0  0
   51.5160   53.0540   21.6950 C   0  0  0  0  0  0  0  0  0  0  0  0
   52.3260   52.3030   20.9220 N   0  0  0  0  0  0  0  0  0  0  0  0
   53.1130   52.6990   20.5160 H   0  0  0  0  0  0  0  0  0  0  0  0
   50.5310   52.5580   22.2020 O   0  0  0  0  0  0  0  0  0  0  0  0
   52.0180   50.8880   20.6950 C   0  0  0  0  0  0  0  0  0  0  0  0
   51.4160   50.7250   19.3620 C   0  0  0  0  0  0  0  0  0  0  0  0
   50.9510   50.5990   18.3330 N   0  0  0  0  0  0  0  0  0  0  0  0
  1  7  1  0  0  0  0
  2  3  1  0  0  0  0
  2  1  1  0  0  0  0
  3  4  1  0  0  0  0
  4 17  1  0  0  0  0
  4  6  1  0  0  0  0
  4  5  1  0  0  0  0
  7  6  1  0  0  0  0
  8 10  1  0  0  0  0
  9  8  1  0  0  0  0
 10  1  1  0  0  0  0
 10 11  2  0  0  0  0
 12  8  1  0  0  0  0
 13 15  1  0  0  0  0
 13 12  1  0  0  0  0
 14 15  1  0  0  0  0
 15 16  1  0  0  0  0
 18 17  1  0  0  0  0
 18 21  2  0  0  0  0
 19 18  1  0  0  0  0
 20 19  1  0  0  0  0
 22 19  1  0  0  0  0
 23 22  1  0  0  0  0
 24 23  3  0  0  0  0
M  END
>  <MODEL>
8

>  <REMARK>
  Name = ZINC66494959
                            x       y       z     vdW  Elec       q    Type
                         _______ _______ _______ _____ _____    ______ ____

>  <TORSDO>
F 8

>  <minimizedAffinity>
-6.3254397028681728

$$$$
ZINC66494959
 OpenBabel10211216113D

 24 24  0  0  0  0  0  0  0  0999 V2000
   48.9030   51.5370   17.9040 C   0  0  0  0  0  0  0  0  0  0  0  0
   48.5210   52.8830   17.2800 C   0  0  0  0  0  0  0  0  0  0  0  0
   48.6160   53.9780   18.3450 C   0  0  0  0  0  0  0  0  0  0  0  0
   49.9880   54.0470   18.8610 N   0  0  0  0  0  0  0  0  0  0  0  0
   50.6260   54.2100   18.0970 H   0  0  0  0  0  0  0  0  0  0  0  0
   50.3350   52.7840   19.5240 C   0  0  0  0  0  0  0  0  0  0  0  0
   50.3070   51.6440   18.5050 C   0  0  0  0  0  0  0  0  0  0  0  0
   48.6690   49.1830   17.1820 N   0  0  0  0  0  0  0  0  0  0  0  0
   48.5200   48.9460   18.1110 H   0  0  0  0  0  0  0  0  0  0  0  0
   48.8880   50.4680   16.8420 C   0  0  0  0  0  0  0  0  0  0  0  0
   49.0750   50.7650   15.6810 O   0  0  0  0  0  0  0  0  0  0  0  0
   48.6560   48.1440   16.1500 C   0  0  0  0  0  0  0  0  0  0  0  0
   47.4840   47.1920   16.3990 C   0  0  0  0  0  0  0  0  0  0  0  0
   45.3290   48.4560   16.3840 C   0  0  0  0  0  0  0  0  0  0  0  0
   46.2900   47.6160   15.5410 C   0  0  0  0  0  0  0  0  0  0  0  0
   46.7850   48.4440   14.3530 C   0  0  0  0  0  0  0  0  0  0  0  0
   50.0910   55.1490   19.8260 C   0  0  0  0  0  0  0  0  0  0  0  0
   51.4150   55.8470   19.6510 C   0  0  0  0  0  0  0  0  0  0  0  0
   51.9760   56.4980   20.6900 N   0  0  0  0  0  0  0  0  0  0  0  0
   51.5280   56.5160   21.5500 H   0  0  0  0  0  0  0  0  0  0  0  0
   51.9750   55.8250   18.5760 O   0  0  0  0  0  0  0  0  0  0  0  0
   53.2630   57.1770   20.5210 C   0  0  0  0  0  0  0  0  0  0  0  0
   53.3700   58.2770   21.4930 C   0  0  0  0  0  0  0  0  0  0  0  0
   53.4520   59.1260   22.2430 N   0  0  0  0  0  0  0  0  0  0  0  0
  1  7  1  0  0  0  0
  2  1  1  0  0  0  0
  2  3  1  0  0  0  0
  3  4  1  0  0  0  0
  4  6  1  0  0  0  0
  4 17  1  0  0  0  0
  5  4  1  0  0  0  0
  7  6  1  0  0  0  0
  8  9  1  0  0  0  0
 10  8  1  0  0  0  0
 10  1  1  0  0  0  0
 11 10  2  0  0  0  0
 12 13  1  0  0  0  0
 12  8  1  0  0  0  0
 15 14  1  0  0  0  0
 15 13  1  0  0  0  0
 16 15  1  0  0  0  0
 18 17  1  0  0  0  0
 18 19  1  0  0  0  0
 19 20  1  0  0  0  0
 21 18  2  0  0  0  0
 22 19  1  0  0  0  0
 22 23  1  0  0  0  0
 23 24  3  0  0  0  0
M  END
>  <MODEL>
9

>  <REMARK>
  Name = ZINC66494959
                            x       y       z     vdW  Elec       q    Type
                         _______ _______ _______ _____ _____    ______ ____

>  <TORSDO>
F 8

>  <minimizedAffinity>
-6.0963561284805383

$$$$
ZINC19866771
 OpenBabel10211216133D

 31 32  0  0  0  0  0  0  0  0999 V2000
   49.8610   51.8720   17.3750 N   0  0  0  0  0  0  0  0  0  0  0  0
   50.5480   51.0550   17.6380 H   0  0  0  0  0  0  0  0  0  0  0  0
   48.8990   51.6740   16.4520 C   0  0  0  0  0  0  0  0  0  0  0  0
   48.1390   52.5770   16.1630 O   0  0  0  0  0  0  0  0  0  0  0  0
   48.7670   50.3460   15.7870 C   0  0  0  0  0  0  0  0  0  0  0  0
   49.2590   49.2410   16.3840 N   0  0  0  0  0  0  0  0  0  0  0  0
   49.7590   49.3200   17.3610 H   0  0  0  0  0  0  0  0  0  0  0  0
   48.2160   50.2580   14.7090 O   0  0  0  0  0  0  0  0  0  0  0  0
   49.1290   47.9370   15.7300 C   0  0  0  0  0  0  0  0  0  0  0  0
   48.5210   46.9320   16.7130 C   0  0  0  0  0  0  0  0  0  0  0  0
   47.0510   47.2790   16.9530 C   0  0  0  0  0  0  0  0  0  0  0  0
   46.2960   47.1000   15.7060 N   0  0  0  0  0  0  0  0  0  0  0  0
   45.3860   48.2320   15.4750 C   0  0  0  0  0  0  0  0  0  0  0  0
   44.6650   48.0350   14.1380 C   0  0  0  0  0  0  0  0  0  0  0  0
   43.9760   46.7820   14.1550 O   0  0  0  0  0  0  0  0  0  0  0  0
   44.8320   45.6570   14.3780 C   0  0  0  0  0  0  0  0  0  0  0  0
   45.5550   45.8300   15.7160 C   0  0  0  0  0  0  0  0  0  0  0  0
   50.1150   53.1890   19.2910 C   0  0  0  0  0  0  0  0  0  0  0  0
   49.9850   53.1200   18.0000 N   0  0  0  0  0  0  0  0  0  0  0  0
   51.5740   56.1020   21.1590 C   0  0  0  0  0  0  0  0  0  0  0  0
   51.4540   54.8680   20.5490 C   0  0  0  0  0  0  0  0  0  0  0  0
   50.2460   54.5010   19.9490 C   0  0  0  0  0  0  0  0  0  0  0  0
   49.1600   55.3820   19.9800 C   0  0  0  0  0  0  0  0  0  0  0  0
   49.2840   56.6080   20.5960 C   0  0  0  0  0  0  0  0  0  0  0  0
   47.6560   57.9250   20.6420 I   0  0  0  0  0  0  0  0  0  0  0  0
   50.4870   56.9730   21.1870 C   0  0  0  0  0  0  0  0  0  0  0  0
   50.6050   58.1840   21.7920 O   0  0  0  0  0  0  0  0  0  0  0  0
   49.8170   58.5370   22.4750 H   0  0  0  0  0  0  0  0  0  0  0  0
   52.7500   56.4630   21.7380 O   0  0  0  0  0  0  0  0  0  0  0  0
   53.8530   58.4680   20.9640 C   0  0  0  0  0  0  0  0  0  0  0  0
   53.7800   56.9430   20.8710 C   0  0  0  0  0  0  0  0  0  0  0  0
  1  2  1  0  0  0  0
  1 19  1  0  0  0  0
  3  1  1  0  0  0  0
  4  3  2  0  0  0  0
  5  6  1  0  0  0  0
  5  3  1  0  0  0  0
  6  7  1  0  0  0  0
  8  5  2  0  0  0  0
  9  6  1  0  0  0  0
  9 10  1  0  0  0  0
 10 11  1  0  0  0  0
 12 17  1  0  0  0  0
 12 11  1  0  0  0  0
 13 12  1  0  0  0  0
 14 15  1  0  0  0  0
 14 13  1  0  0  0  0
 15 16  1  0  0  0  0
 16 17  1  0  0  0  0
 18 22  1  0  0  0  0
 19 18  2  0  0  0  0
 20 26  1  0  0  0  0
 20 29  1  0  0  0  0
 21 20  2  0  0  0  0
 22 23  2  0  0  0  0
 22 21  1  0  0  0  0
 23 24  1  0  0  0  0
 24 25  1  0  0  0  0
 24 26  2  0  0  0  0
 26 27  1  0  0  0  0
 27 28  1  0  0  0  0
 31 30  1  0  0  0  0
 31 29  1  0  0  0  0
M  END
>  <MODEL>
1

>  <REMARK>
  Name = ZINC19866771
                            x       y       z     vdW  Elec       q    Type
                         _______ _______ _______ _____ _____    ______ ____

>  <TORSDO>
F 10

>  <minimizedAffinity>
-7.3099053241296232

$$$$
ZINC19866771
 OpenBabel10211216133D

 31 32  0  0  0  0  0  0  0  0999 V2000
   49.2510   52.3850   17.2240 N   0  0  0  0  0  0  0  0  0  0  0  0
   48.6420   52.6020   16.3330 H   0  0  0  0  0  0  0  0  0  0  0  0
   49.7400   51.1440   17.4190 C   0  0  0  0  0  0  0  0  0  0  0  0
   50.4130   50.9050   18.4020 O   0  0  0  0  0  0  0  0  0  0  0  0
   49.4550   50.0660   16.4290 C   0  0  0  0  0  0  0  0  0  0  0  0
   49.1650   48.8200   16.8550 N   0  0  0  0  0  0  0  0  0  0  0  0
   49.1400   48.5990   17.9320 H   0  0  0  0  0  0  0  0  0  0  0  0
   49.4830   50.3100   15.2400 O   0  0  0  0  0  0  0  0  0  0  0  0
   48.8850   47.7610   15.8810 C   0  0  0  0  0  0  0  0  0  0  0  0
   48.9300   46.4000   16.5810 C   0  0  0  0  0  0  0  0  0  0  0  0
   47.5200   45.8140   16.6480 C   0  0  0  0  0  0  0  0  0  0  0  0
   46.5340   46.8810   16.4290 N   0  0  0  0  0  0  0  0  0  0  0  0
   45.8170   47.1990   17.6720 C   0  0  0  0  0  0  0  0  0  0  0  0
   44.8460   48.3540   17.4130 C   0  0  0  0  0  0  0  0  0  0  0  0
   43.9570   47.9940   16.3520 O   0  0  0  0  0  0  0  0  0  0  0  0
   44.6220   47.6790   15.1250 C   0  0  0  0  0  0  0  0  0  0  0  0
   45.5910   46.5170   15.3610 C   0  0  0  0  0  0  0  0  0  0  0  0
   48.5850   54.2380   18.4860 C   0  0  0  0  0  0  0  0  0  0  0  0
   49.5190   53.3980   18.1540 N   0  0  0  0  0  0  0  0  0  0  0  0
   48.3730   57.4720   20.3820 C   0  0  0  0  0  0  0  0  0  0  0  0
   48.1090   56.4790   19.4580 C   0  0  0  0  0  0  0  0  0  0  0  0
   48.8670   55.3030   19.4640 C   0  0  0  0  0  0  0  0  0  0  0  0
   49.8970   55.1450   20.3960 C   0  0  0  0  0  0  0  0  0  0  0  0
   50.1590   56.1430   21.3100 C   0  0  0  0  0  0  0  0  0  0  0  0
   51.7020   55.9030   22.7060 I   0  0  0  0  0  0  0  0  0  0  0  0
   49.4020   57.3070   21.3080 C   0  0  0  0  0  0  0  0  0  0  0  0
   49.6630   58.2880   22.2110 O   0  0  0  0  0  0  0  0  0  0  0  0
   49.5270   58.0960   23.2860 H   0  0  0  0  0  0  0  0  0  0  0  0
   47.6340   58.6130   20.3830 O   0  0  0  0  0  0  0  0  0  0  0  0
   46.8000   60.6400   19.3650 C   0  0  0  0  0  0  0  0  0  0  0  0
   47.4910   59.2940   19.1350 C   0  0  0  0  0  0  0  0  0  0  0  0
  1  3  1  0  0  0  0
  1 19  1  0  0  0  0
  2  1  1  0  0  0  0
  3  4  2  0  0  0  0
  5  6  1  0  0  0  0
  5  3  1  0  0  0  0
  6  7  1  0  0  0  0
  8  5  2  0  0  0  0
  9 10  1  0  0  0  0
  9  6  1  0  0  0  0
 10 11  1  0  0  0  0
 12 11  1  0  0  0  0
 12 13  1  0  0  0  0
 14 13  1  0  0  0  0
 15 14  1  0  0  0  0
 16 17  1  0  0  0  0
 16 15  1  0  0  0  0
 17 12  1  0  0  0  0
 18 22  1  0  0  0  0
 19 18  2  0  0  0  0
 20 29  1  0  0  0  0
 20 26  2  0  0  0  0
 21 22  2  0  0  0  0
 21 20  1  0  0  0  0
 22 23  1  0  0  0  0
 23 24  2  0  0  0  0
 24 25  1  0  0  0  0
 26 24  1  0  0  0  0
 26 27  1  0  0  0  0
 27 28  1  0  0  0  0
 31 30  1  0  0  0  0
 31 29  1  0  0  0  0
M  END
>  <MODEL>
2

>  <REMARK>
  Name = ZINC19866771
                            x       y       z     vdW  Elec       q    Type
                         _______ _______ _______ _____ _____    ______ ____

>  <TORSDO>
F 10

>  <minimizedAffinity>
-7.2499592390068335

$$$$
ZINC19866771
 OpenBabel10211216133D

 31 32  0  0  0  0  0  0  0  0999 V2000
   46.8300   59.5450   19.8960 N   0  0  0  0  0  0  0  0  0  0  0  0
   45.9920   59.4000   20.5940 H   0  0  0  0  0  0  0  0  0  0  0  0
   46.8330   60.6000   19.0570 C   0  0  0  0  0  0  0  0  0  0  0  0
   47.7590   60.7610   18.2860 O   0  0  0  0  0  0  0  0  0  0  0  0
   45.7000   61.5690   19.0740 C   0  0  0  0  0  0  0  0  0  0  0  0
   44.6580   61.4030   18.2340 N   0  0  0  0  0  0  0  0  0  0  0  0
   44.6440   60.5530   17.5360 H   0  0  0  0  0  0  0  0  0  0  0  0
   45.7140   62.5080   19.8430 O   0  0  0  0  0  0  0  0  0  0  0  0
   43.5450   62.3550   18.2510 C   0  0  0  0  0  0  0  0  0  0  0  0
   43.3480   62.9340   16.8480 C   0  0  0  0  0  0  0  0  0  0  0  0
   43.2920   64.4600   16.9280 C   0  0  0  0  0  0  0  0  0  0  0  0
   44.5070   65.0270   16.3290 N   0  0  0  0  0  0  0  0  0  0  0  0
   44.9680   64.2080   15.1990 C   0  0  0  0  0  0  0  0  0  0  0  0
   46.1970   64.8660   14.5660 C   0  0  0  0  0  0  0  0  0  0  0  0
   47.2100   65.0310   15.5640 O   0  0  0  0  0  0  0  0  0  0  0  0
   46.7950   65.8240   16.6800 C   0  0  0  0  0  0  0  0  0  0  0  0
   45.5710   65.1760   17.3330 C   0  0  0  0  0  0  0  0  0  0  0  0
   48.1950   57.9680   20.9540 C   0  0  0  0  0  0  0  0  0  0  0  0
   47.8950   58.6350   19.8800 N   0  0  0  0  0  0  0  0  0  0  0  0
   51.5350   56.3890   21.6260 C   0  0  0  0  0  0  0  0  0  0  0  0
   50.4900   57.2930   21.6390 C   0  0  0  0  0  0  0  0  0  0  0  0
   49.3140   57.0100   20.9380 C   0  0  0  0  0  0  0  0  0  0  0  0
   49.2070   55.8180   20.2150 C   0  0  0  0  0  0  0  0  0  0  0  0
   50.2550   54.9240   20.2000 C   0  0  0  0  0  0  0  0  0  0  0  0
   50.0910   53.1380   19.1180 I   0  0  0  0  0  0  0  0  0  0  0  0
   51.4200   55.2030   20.9030 C   0  0  0  0  0  0  0  0  0  0  0  0
   52.4510   54.3180   20.8860 O   0  0  0  0  0  0  0  0  0  0  0  0
   53.3120   54.4640   21.5560 H   0  0  0  0  0  0  0  0  0  0  0  0
   52.6770   56.6590   22.3120 O   0  0  0  0  0  0  0  0  0  0  0  0
   54.1740   57.6440   20.6910 C   0  0  0  0  0  0  0  0  0  0  0  0
   53.3680   57.8630   21.9730 C   0  0  0  0  0  0  0  0  0  0  0  0
  1  2  1  0  0  0  0
  3  5  1  0  0  0  0
  3  1  1  0  0  0  0
  4  3  2  0  0  0  0
  5  8  2  0  0  0  0
  6  9  1  0  0  0  0
  6  5  1  0  0  0  0
  7  6  1  0  0  0  0
 10 11  1  0  0  0  0
 10  9  1  0  0  0  0
 12 11  1  0  0  0  0
 12 17  1  0  0  0  0
 13 12  1  0  0  0  0
 14 13  1  0  0  0  0
 14 15  1  0  0  0  0
 15 16  1  0  0  0  0
 16 17  1  0  0  0  0
 19  1  1  0  0  0  0
 19 18  2  0  0  0  0
 20 21  1  0  0  0  0
 20 29  1  0  0  0  0
 22 18  1  0  0  0  0
 22 21  2  0  0  0  0
 23 22  1  0  0  0  0
 24 23  2  0  0  0  0
 24 26  1  0  0  0  0
 25 24  1  0  0  0  0
 26 20  2  0  0  0  0
 27 26  1  0  0  0  0
 27 28  1  0  0  0  0
 30 31  1  0  0  0  0
 31 29  1  0  0  0  0
M  END
>  <MODEL>
3

>  <REMARK>
  Name = ZINC19866771
                            x       y       z     vdW  Elec       q    Type
                         _______ _______ _______ _____ _____    ______ ____

>  <TORSDO>
F 10

>  <minimizedAffinity>
-7.1046362992699432

$$$$
ZINC19866771
 OpenBabel10211216133D

 31 32  0  0  0  0  0  0  0  0999 V2000
   49.1910   56.6760   21.0050 N   0  0  0  0  0  0  0  0  0  0  0  0
   48.6470   55.8400   21.4690 H   0  0  0  0  0  0  0  0  0  0  0  0
   50.5370   56.7100   21.0470 C   0  0  0  0  0  0  0  0  0  0  0  0
   51.1380   57.6330   20.5330 O   0  0  0  0  0  0  0  0  0  0  0  0
   51.2900   55.6140   21.7220 C   0  0  0  0  0  0  0  0  0  0  0  0
   50.9550   54.3270   21.4960 N   0  0  0  0  0  0  0  0  0  0  0  0
   50.1270   54.0860   20.8140 H   0  0  0  0  0  0  0  0  0  0  0  0
   52.2040   55.8790   22.4760 O   0  0  0  0  0  0  0  0  0  0  0  0
   51.6950   53.2510   22.1600 C   0  0  0  0  0  0  0  0  0  0  0  0
   51.2690   51.9030   21.5750 C   0  0  0  0  0  0  0  0  0  0  0  0
   51.6570   51.8420   20.0970 C   0  0  0  0  0  0  0  0  0  0  0  0
   50.4420   51.8040   19.2720 N   0  0  0  0  0  0  0  0  0  0  0  0
   50.3800   50.5650   18.4830 C   0  0  0  0  0  0  0  0  0  0  0  0
   49.0720   50.5390   17.6870 C   0  0  0  0  0  0  0  0  0  0  0  0
   48.9970   51.7080   16.8660 O   0  0  0  0  0  0  0  0  0  0  0  0
   49.0550   52.9330   17.6020 C   0  0  0  0  0  0  0  0  0  0  0  0
   50.3610   52.9830   18.3980 C   0  0  0  0  0  0  0  0  0  0  0  0
   48.0910   57.5600   19.1400 C   0  0  0  0  0  0  0  0  0  0  0  0
   48.4830   57.7050   20.3700 N   0  0  0  0  0  0  0  0  0  0  0  0
   46.1530   59.4760   16.5560 C   0  0  0  0  0  0  0  0  0  0  0  0
   46.8560   58.4600   17.1760 C   0  0  0  0  0  0  0  0  0  0  0  0
   47.3470   58.6420   18.4720 C   0  0  0  0  0  0  0  0  0  0  0  0
   47.1360   59.8580   19.1300 C   0  0  0  0  0  0  0  0  0  0  0  0
   46.4390   60.8690   18.5030 C   0  0  0  0  0  0  0  0  0  0  0  0
   46.1230   62.6890   19.4920 I   0  0  0  0  0  0  0  0  0  0  0  0
   45.9470   60.6840   17.2190 C   0  0  0  0  0  0  0  0  0  0  0  0
   45.2600   61.6840   16.6050 O   0  0  0  0  0  0  0  0  0  0  0  0
   44.9510   61.5740   15.5540 H   0  0  0  0  0  0  0  0  0  0  0  0
   45.6690   59.2980   15.2980 O   0  0  0  0  0  0  0  0  0  0  0  0
   44.6470   57.2380   14.5550 C   0  0  0  0  0  0  0  0  0  0  0  0
   45.9430   58.0450   14.6690 C   0  0  0  0  0  0  0  0  0  0  0  0
  1  3  1  0  0  0  0
  1  2  1  0  0  0  0
  3  5  1  0  0  0  0
  4  3  2  0  0  0  0
  5  8  2  0  0  0  0
  6  5  1  0  0  0  0
  6  9  1  0  0  0  0
  7  6  1  0  0  0  0
 10  9  1  0  0  0  0
 11 10  1  0  0  0  0
 12 11  1  0  0  0  0
 13 12  1  0  0  0  0
 14 13  1  0  0  0  0
 15 16  1  0  0  0  0
 15 14  1  0  0  0  0
 16 17  1  0  0  0  0
 17 12  1  0  0  0  0
 18 19  2  0  0  0  0
 19  1  1  0  0  0  0
 20 21  2  0  0  0  0
 20 26  1  0  0  0  0
 21 22  1  0  0  0  0
 22 23  2  0  0  0  0
 22 18  1  0  0  0  0
 24 23  1  0  0  0  0
 24 25  1  0  0  0  0
 26 24  2  0  0  0  0
 27 26  1  0  0  0  0
 28 27  1  0  0  0  0
 29 20  1  0  0  0  0
 30 31  1  0  0  0  0
 31 29  1  0  0  0  0
M  END
>  <MODEL>
4

>  <REMARK>
  Name = ZINC19866771
                            x       y       z     vdW  Elec       q    Type
                         _______ _______ _______ _____ _____    ______ ____

>  <TORSDO>
F 10

>  <minimizedAffinity>
-7.092359497991148

$$$$
ZINC19866771
 OpenBabel10211216133D

 31 32  0  0  0  0  0  0  0  0999 V2000
   47.5020   54.9800   15.7160 N   0  0  0  0  0  0  0  0  0  0  0  0
   46.8220   54.7300   14.8880 H   0  0  0  0  0  0  0  0  0  0  0  0
   47.7400   56.2690   16.0280 C   0  0  0  0  0  0  0  0  0  0  0  0
   48.4900   56.5440   16.9430 O   0  0  0  0  0  0  0  0  0  0  0  0
   47.0810   57.3570   15.2500 C   0  0  0  0  0  0  0  0  0  0  0  0
   46.1600   58.1450   15.8410 N   0  0  0  0  0  0  0  0  0  0  0  0
   45.8940   57.9850   16.8960 H   0  0  0  0  0  0  0  0  0  0  0  0
   47.3730   57.5350   14.0850 O   0  0  0  0  0  0  0  0  0  0  0  0
   45.5130   59.2150   15.0770 C   0  0  0  0  0  0  0  0  0  0  0  0
   45.0140   60.2970   16.0370 C   0  0  0  0  0  0  0  0  0  0  0  0
   45.8770   60.2980   17.2990 C   0  0  0  0  0  0  0  0  0  0  0  0
   45.7830   61.6080   17.9570 N   0  0  0  0  0  0  0  0  0  0  0  0
   46.3840   61.5680   19.2970 C   0  0  0  0  0  0  0  0  0  0  0  0
   46.3200   62.9650   19.9210 C   0  0  0  0  0  0  0  0  0  0  0  0
   44.9590   63.4060   19.9510 O   0  0  0  0  0  0  0  0  0  0  0  0
   44.3420   63.4560   18.6610 C   0  0  0  0  0  0  0  0  0  0  0  0
   44.3870   62.0650   18.0250 C   0  0  0  0  0  0  0  0  0  0  0  0
   47.7200   52.7280   16.3110 C   0  0  0  0  0  0  0  0  0  0  0  0
   48.1210   53.9570   16.4470 N   0  0  0  0  0  0  0  0  0  0  0  0
   48.3530   49.4080   17.9470 C   0  0  0  0  0  0  0  0  0  0  0  0
   47.7350   50.4160   17.2310 C   0  0  0  0  0  0  0  0  0  0  0  0
   48.3700   51.6520   17.0790 C   0  0  0  0  0  0  0  0  0  0  0  0
   49.6220   51.8670   17.6660 C   0  0  0  0  0  0  0  0  0  0  0  0
   50.2280   50.8590   18.3840 C   0  0  0  0  0  0  0  0  0  0  0  0
   52.1030   51.1830   19.2600 I   0  0  0  0  0  0  0  0  0  0  0  0
   49.6000   49.6300   18.5280 C   0  0  0  0  0  0  0  0  0  0  0  0
   50.2020   48.6390   19.2370 O   0  0  0  0  0  0  0  0  0  0  0  0
   50.9650   48.0060   18.7580 H   0  0  0  0  0  0  0  0  0  0  0  0
   47.7400   48.2030   18.0900 O   0  0  0  0  0  0  0  0  0  0  0  0
   45.3710   47.7320   18.0300 C   0  0  0  0  0  0  0  0  0  0  0  0
   46.5580   48.1670   18.8920 C   0  0  0  0  0  0  0  0  0  0  0  0
  1  3  1  0  0  0  0
  1 19  1  0  0  0  0
  2  1  1  0  0  0  0
  3  4  2  0  0  0  0
  5  6  1  0  0  0  0
  5  3  1  0  0  0  0
  6  7  1  0  0  0  0
  8  5  2  0  0  0  0
  9  6  1  0  0  0  0
  9 10  1  0  0  0  0
 10 11  1  0  0  0  0
 11 12  1  0  0  0  0
 12 17  1  0  0  0  0
 12 13  1  0  0  0  0
 13 14  1  0  0  0  0
 14 15  1  0  0  0  0
 16 15  1  0  0  0  0
 17 16  1  0  0  0  0
 18 19  2  0  0  0  0
 18 22  1  0  0  0  0
 20 29  1  0  0  0  0
 20 26  2  0  0  0  0
 21 20  1  0  0  0  0
 22 21  2  0  0  0  0
 22 23  1  0  0  0  0
 23 24  2  0  0  0  0
 24 26  1  0  0  0  0
 24 25  1  0  0  0  0
 26 27  1  0  0  0  0
 28 27  1  0  0  0  0
 29 31  1  0  0  0  0
 30 31  1  0  0  0  0
M  END
>  <MODEL>
5

>  <REMARK>
  Name = ZINC19866771
                            x       y       z     vdW  Elec       q    Type
                         _______ _______ _______ _____ _____    ______ ____

>  <TORSDO>
F 10

>  <minimizedAffinity>
-7.0794468352033295

$$$$
ZINC19866771
 OpenBabel10211216133D

 31 32  0  0  0  0  0  0  0  0999 V2000
   48.2630   56.4910   17.5010 N   0  0  0  0  0  0  0  0  0  0  0  0
   48.1160   56.7130   16.4340 H   0  0  0  0  0  0  0  0  0  0  0  0
   47.9580   57.4190   18.4290 C   0  0  0  0  0  0  0  0  0  0  0  0
   48.1190   57.1740   19.6090 O   0  0  0  0  0  0  0  0  0  0  0  0
   47.4220   58.7460   18.0090 C   0  0  0  0  0  0  0  0  0  0  0  0
   47.5870   59.8220   18.8060 N   0  0  0  0  0  0  0  0  0  0  0  0
   48.1150   59.7200   19.7650 H   0  0  0  0  0  0  0  0  0  0  0  0
   46.8390   58.8590   16.9510 O   0  0  0  0  0  0  0  0  0  0  0  0
   47.0610   61.1250   18.3930 C   0  0  0  0  0  0  0  0  0  0  0  0
   45.7820   61.4310   19.1780 C   0  0  0  0  0  0  0  0  0  0  0  0
   45.8910   62.8200   19.8090 C   0  0  0  0  0  0  0  0  0  0  0  0
   44.6560   63.5720   19.5540 N   0  0  0  0  0  0  0  0  0  0  0  0
   43.4850   62.6830   19.5710 C   0  0  0  0  0  0  0  0  0  0  0  0
   42.2170   63.5150   19.3630 C   0  0  0  0  0  0  0  0  0  0  0  0
   42.3260   64.2420   18.1360 O   0  0  0  0  0  0  0  0  0  0  0  0
   43.4560   65.1190   18.0840 C   0  0  0  0  0  0  0  0  0  0  0  0
   44.7360   64.3030   18.2810 C   0  0  0  0  0  0  0  0  0  0  0  0
   48.4380   54.1740   17.2350 C   0  0  0  0  0  0  0  0  0  0  0  0
   48.7650   55.2440   17.8950 N   0  0  0  0  0  0  0  0  0  0  0  0
   50.3590   51.5420   19.1020 C   0  0  0  0  0  0  0  0  0  0  0  0
   49.8710   52.7750   18.7130 C   0  0  0  0  0  0  0  0  0  0  0  0
   48.9670   52.8630   17.6500 C   0  0  0  0  0  0  0  0  0  0  0  0
   48.5720   51.7030   16.9760 C   0  0  0  0  0  0  0  0  0  0  0  0
   49.0680   50.4770   17.3650 C   0  0  0  0  0  0  0  0  0  0  0  0
   48.4740   48.7400   16.3560 I   0  0  0  0  0  0  0  0  0  0  0  0
   49.9610   50.3910   18.4260 C   0  0  0  0  0  0  0  0  0  0  0  0
   50.4470   49.1800   18.8070 O   0  0  0  0  0  0  0  0  0  0  0  0
   51.4070   48.8220   18.4050 H   0  0  0  0  0  0  0  0  0  0  0  0
   51.2330   51.4540   20.1390 O   0  0  0  0  0  0  0  0  0  0  0  0
   51.5950   52.9590   21.9950 C   0  0  0  0  0  0  0  0  0  0  0  0
   51.9030   52.6550   20.5270 C   0  0  0  0  0  0  0  0  0  0  0  0
  1 19  1  0  0  0  0
  1  3  1  0  0  0  0
  2  1  1  0  0  0  0
  3  4  2  0  0  0  0
  5  3  1  0  0  0  0
  5  6  1  0  0  0  0
  6  7  1  0  0  0  0
  8  5  2  0  0  0  0
  9  6  1  0  0  0  0
  9 10  1  0  0  0  0
 10 11  1  0  0  0  0
 12 13  1  0  0  0  0
 12 11  1  0  0  0  0
 14 13  1  0  0  0  0
 15 14  1  0  0  0  0
 16 15  1  0  0  0  0
 16 17  1  0  0  0  0
 17 12  1  0  0  0  0
 18 22  1  0  0  0  0
 18 19  2  0  0  0  0
 20 29  1  0  0  0  0
 21 20  1  0  0  0  0
 22 21  2  0  0  0  0
 23 24  2  0  0  0  0
 23 22  1  0  0  0  0
 24 26  1  0  0  0  0
 25 24  1  0  0  0  0
 26 27  1  0  0  0  0
 26 20  2  0  0  0  0
 28 27  1  0  0  0  0
 29 31  1  0  0  0  0
 31 30  1  0  0  0  0
M  END
>  <MODEL>
6

>  <REMARK>
  Name = ZINC19866771
                            x       y       z     vdW  Elec       q    Type
                         _______ _______ _______ _____ _____    ______ ____

>  <TORSDO>
F 10

>  <minimizedAffinity>
-7.0522955116803985

$$$$
ZINC19866771
 OpenBabel10211216133D

 31 32  0  0  0  0  0  0  0  0999 V2000
   48.3720   56.2390   17.5620 N   0  0  0  0  0  0  0  0  0  0  0  0
   48.3930   56.4800   16.4890 H   0  0  0  0  0  0  0  0  0  0  0  0
   47.9780   57.1690   18.4540 C   0  0  0  0  0  0  0  0  0  0  0  0
   47.9540   56.9030   19.6390 O   0  0  0  0  0  0  0  0  0  0  0  0
   47.5710   58.5250   17.9860 C   0  0  0  0  0  0  0  0  0  0  0  0
   47.8290   59.6070   18.7490 N   0  0  0  0  0  0  0  0  0  0  0  0
   48.3380   59.4890   19.7170 H   0  0  0  0  0  0  0  0  0  0  0  0
   47.0080   58.6570   16.9190 O   0  0  0  0  0  0  0  0  0  0  0  0
   47.4290   60.9390   18.2890 C   0  0  0  0  0  0  0  0  0  0  0  0
   46.3850   61.5180   19.2470 C   0  0  0  0  0  0  0  0  0  0  0  0
   46.3130   63.0350   19.0670 C   0  0  0  0  0  0  0  0  0  0  0  0
   46.3310   63.3600   17.6350 N   0  0  0  0  0  0  0  0  0  0  0  0
   47.0260   64.6320   17.3930 C   0  0  0  0  0  0  0  0  0  0  0  0
   47.0750   64.9010   15.8870 C   0  0  0  0  0  0  0  0  0  0  0  0
   45.7430   64.9050   15.3650 O   0  0  0  0  0  0  0  0  0  0  0  0
   45.0350   63.6810   15.5830 C   0  0  0  0  0  0  0  0  0  0  0  0
   44.9670   63.3990   17.0860 C   0  0  0  0  0  0  0  0  0  0  0  0
   48.5130   53.9230   17.2630 C   0  0  0  0  0  0  0  0  0  0  0  0
   48.7540   54.9640   18.0020 N   0  0  0  0  0  0  0  0  0  0  0  0
   48.5750   50.2010   17.7560 C   0  0  0  0  0  0  0  0  0  0  0  0
   48.1900   51.4560   17.3240 C   0  0  0  0  0  0  0  0  0  0  0  0
   48.9140   52.5830   17.7250 C   0  0  0  0  0  0  0  0  0  0  0  0
   50.0170   52.4340   18.5720 C   0  0  0  0  0  0  0  0  0  0  0  0
   50.3910   51.1800   19.0030 C   0  0  0  0  0  0  0  0  0  0  0  0
   52.0440   50.9600   20.2700 I   0  0  0  0  0  0  0  0  0  0  0  0
   49.6750   50.0610   18.5990 C   0  0  0  0  0  0  0  0  0  0  0  0
   50.0470   48.8260   19.0270 O   0  0  0  0  0  0  0  0  0  0  0  0
   50.6680   48.7210   19.9290 H   0  0  0  0  0  0  0  0  0  0  0  0
   47.8750   49.1040   17.3620 O   0  0  0  0  0  0  0  0  0  0  0  0
   46.2620   47.9660   18.7570 C   0  0  0  0  0  0  0  0  0  0  0  0
   46.4900   49.0580   17.7090 C   0  0  0  0  0  0  0  0  0  0  0  0
  1 19  1  0  0  0  0
  1  3  1  0  0  0  0
  2  1  1  0  0  0  0
  3  4  2  0  0  0  0
  5  3  1  0  0  0  0
  5  6  1  0  0  0  0
  6  7  1  0  0  0  0
  8  5  2  0  0  0  0
  9  6  1  0  0  0  0
  9 10  1  0  0  0  0
 11 10  1  0  0  0  0
 12 11  1  0  0  0  0
 13 12  1  0  0  0  0
 14 13  1  0  0  0  0
 15 16  1  0  0  0  0
 15 14  1  0  0  0  0
 16 17  1  0  0  0  0
 17 12  1  0  0  0  0
 18 22  1  0  0  0  0
 18 19  2  0  0  0  0
 20 26  2  0  0  0  0
 21 22  2  0  0  0  0
 21 20  1  0  0  0  0
 22 23  1  0  0  0  0
 23 24  2  0  0  0  0
 24 25  1  0  0  0  0
 26 24  1  0  0  0  0
 26 27  1  0  0  0  0
 27 28  1  0  0  0  0
 29 31  1  0  0  0  0
 29 20  1  0  0  0  0
 31 30  1  0  0  0  0
M  END
>  <MODEL>
7

>  <REMARK>
  Name = ZINC19866771
                            x       y       z     vdW  Elec       q    Type
                         _______ _______ _______ _____ _____    ______ ____

>  <TORSDO>
F 10

>  <minimizedAffinity>
-6.8878889665666483

$$$$
ZINC19866771
 OpenBabel10211216133D

 31 32  0  0  0  0  0  0  0  0999 V2000
   47.1290   56.0830   15.6300 N   0  0  0  0  0  0  0  0  0  0  0  0
   46.1320   56.1560   16.0890 H   0  0  0  0  0  0  0  0  0  0  0  0
   47.4820   56.9360   14.6480 C   0  0  0  0  0  0  0  0  0  0  0  0
   48.5840   56.8560   14.1410 O   0  0  0  0  0  0  0  0  0  0  0  0
   46.5220   57.9780   14.1850 C   0  0  0  0  0  0  0  0  0  0  0  0
   45.8670   58.7400   15.0850 N   0  0  0  0  0  0  0  0  0  0  0  0
   46.0420   58.5920   16.1610 H   0  0  0  0  0  0  0  0  0  0  0  0
   46.3280   58.1410   12.9980 O   0  0  0  0  0  0  0  0  0  0  0  0
   44.9240   59.7630   14.6290 C   0  0  0  0  0  0  0  0  0  0  0  0
   44.3640   60.5160   15.8390 C   0  0  0  0  0  0  0  0  0  0  0  0
   45.3600   60.4350   16.9960 C   0  0  0  0  0  0  0  0  0  0  0  0
   45.3590   61.7040   17.7350 N   0  0  0  0  0  0  0  0  0  0  0  0
   45.8220   61.5100   19.1160 C   0  0  0  0  0  0  0  0  0  0  0  0
   45.8620   62.8640   19.8300 C   0  0  0  0  0  0  0  0  0  0  0  0
   44.5660   63.4660   19.7730 O   0  0  0  0  0  0  0  0  0  0  0  0
   44.0830   63.6700   18.4420 C   0  0  0  0  0  0  0  0  0  0  0  0
   44.0260   62.3240   17.7140 C   0  0  0  0  0  0  0  0  0  0  0  0
   47.5970   53.9320   16.4210 C   0  0  0  0  0  0  0  0  0  0  0  0
   48.0320   55.1040   16.0660 N   0  0  0  0  0  0  0  0  0  0  0  0
   49.3900   50.6520   16.7730 C   0  0  0  0  0  0  0  0  0  0  0  0
   48.4930   51.6120   16.3440 C   0  0  0  0  0  0  0  0  0  0  0  0
   48.5460   52.9030   16.8790 C   0  0  0  0  0  0  0  0  0  0  0  0
   49.4980   53.2110   17.8560 C   0  0  0  0  0  0  0  0  0  0  0  0
   50.3850   52.2460   18.2840 C   0  0  0  0  0  0  0  0  0  0  0  0
   51.8100   52.7110   19.7460 I   0  0  0  0  0  0  0  0  0  0  0  0
   50.3360   50.9670   17.7460 C   0  0  0  0  0  0  0  0  0  0  0  0
   51.2130   50.0190   18.1700 O   0  0  0  0  0  0  0  0  0  0  0  0
   51.3580   49.1010   17.5800 H   0  0  0  0  0  0  0  0  0  0  0  0
   49.3450   49.3980   16.2490 O   0  0  0  0  0  0  0  0  0  0  0  0
   50.7330   49.3950   14.2700 C   0  0  0  0  0  0  0  0  0  0  0  0
   49.3100   49.2910   14.8240 C   0  0  0  0  0  0  0  0  0  0  0  0
  1 19  1  0  0  0  0
  1  2  1  0  0  0  0
  3  1  1  0  0  0  0
  4  3  2  0  0  0  0
  5  3  1  0  0  0  0
  5  6  1  0  0  0  0
  6  7  1  0  0  0  0
  8  5  2  0  0  0  0
  9  6  1  0  0  0  0
  9 10  1  0  0  0  0
 10 11  1  0  0  0  0
 11 12  1  0  0  0  0
 12 13  1  0  0  0  0
 13 14  1  0  0  0  0
 15 14  1  0  0  0  0
 16 15  1  0  0  0  0
 17 12  1  0  0  0  0
 17 16  1  0  0  0  0
 18 22  1  0  0  0  0
 19 18  2  0  0  0  0
 20 26  1  0  0  0  0
 21 20  2  0  0  0  0
 21 22  1  0  0  0  0
 22 23  2  0  0  0  0
 23 24  1  0  0  0  0
 24 25  1  0  0  0  0
 26 27  1  0  0  0  0
 26 24  2  0  0  0  0
 28 27  1  0  0  0  0
 29 20  1  0  0  0  0
 30 31  1  0  0  0  0
 31 29  1  0  0  0  0
M  END
>  <MODEL>
8

>  <REMARK>
  Name = ZINC19866771
                            x       y       z     vdW  Elec       q    Type
                         _______ _______ _______ _____ _____    ______ ____

>  <TORSDO>
F 10

>  <minimizedAffinity>
-6.8612820369914349

$$$$
ZINC19866771
 OpenBabel10211216133D

 31 32  0  0  0  0  0  0  0  0999 V2000
   48.4300   58.0430   19.9350 N   0  0  0  0  0  0  0  0  0  0  0  0
   48.6790   57.4090   19.0710 H   0  0  0  0  0  0  0  0  0  0  0  0
   49.0170   57.8190   21.1270 C   0  0  0  0  0  0  0  0  0  0  0  0
   48.7430   58.5200   22.0810 O   0  0  0  0  0  0  0  0  0  0  0  0
   50.0050   56.7110   21.2740 C   0  0  0  0  0  0  0  0  0  0  0  0
   50.1250   55.7820   20.3050 N   0  0  0  0  0  0  0  0  0  0  0  0
   49.4940   55.8400   19.4060 H   0  0  0  0  0  0  0  0  0  0  0  0
   50.7010   56.6460   22.2670 O   0  0  0  0  0  0  0  0  0  0  0  0
   51.0960   54.6940   20.4510 C   0  0  0  0  0  0  0  0  0  0  0  0
   51.4910   54.1740   19.0660 C   0  0  0  0  0  0  0  0  0  0  0  0
   50.5600   53.0290   18.6660 C   0  0  0  0  0  0  0  0  0  0  0  0
   50.9140   51.8220   19.4240 N   0  0  0  0  0  0  0  0  0  0  0  0
   52.3570   51.5560   19.3470 C   0  0  0  0  0  0  0  0  0  0  0  0
   52.6910   50.3280   20.1990 C   0  0  0  0  0  0  0  0  0  0  0  0
   51.9110   49.2160   19.7490 O   0  0  0  0  0  0  0  0  0  0  0  0
   50.5000   49.4410   19.8100 C   0  0  0  0  0  0  0  0  0  0  0  0
   50.1450   50.6600   18.9560 C   0  0  0  0  0  0  0  0  0  0  0  0
   47.6440   59.9570   18.8440 C   0  0  0  0  0  0  0  0  0  0  0  0
   47.5020   59.0840   19.7950 N   0  0  0  0  0  0  0  0  0  0  0  0
   44.4770   61.9580   19.1080 C   0  0  0  0  0  0  0  0  0  0  0  0
   45.3860   60.9260   19.2430 C   0  0  0  0  0  0  0  0  0  0  0  0
   46.6680   61.0510   18.6970 C   0  0  0  0  0  0  0  0  0  0  0  0
   47.0180   62.2150   18.0060 C   0  0  0  0  0  0  0  0  0  0  0  0
   46.1040   63.2370   17.8690 C   0  0  0  0  0  0  0  0  0  0  0  0
   46.6310   64.9800   16.8340 I   0  0  0  0  0  0  0  0  0  0  0  0
   44.8340   63.1140   18.4170 C   0  0  0  0  0  0  0  0  0  0  0  0
   43.9350   64.1250   18.2810 O   0  0  0  0  0  0  0  0  0  0  0  0
   44.2790   65.1710   18.2880 H   0  0  0  0  0  0  0  0  0  0  0  0
   43.2330   61.8410   19.6420 O   0  0  0  0  0  0  0  0  0  0  0  0
   40.9960   61.7000   18.7390 C   0  0  0  0  0  0  0  0  0  0  0  0
   42.3190   60.9680   18.9750 C   0  0  0  0  0  0  0  0  0  0  0  0
  1  3  1  0  0  0  0
  2  1  1  0  0  0  0
  3  5  1  0  0  0  0
  3  4  2  0  0  0  0
  5  8  2  0  0  0  0
  6  9  1  0  0  0  0
  6  5  1  0  0  0  0
  7  6  1  0  0  0  0
 10  9  1  0  0  0  0
 11 10  1  0  0  0  0
 11 12  1  0  0  0  0
 13 12  1  0  0  0  0
 13 14  1  0  0  0  0
 15 16  1  0  0  0  0
 15 14  1  0  0  0  0
 17 12  1  0  0  0  0
 17 16  1  0  0  0  0
 18 19  2  0  0  0  0
 19  1  1  0  0  0  0
 20 21  1  0  0  0  0
 20 29  1  0  0  0  0
 22 18  1  0  0  0  0
 22 21  2  0  0  0  0
 23 22  1  0  0  0  0
 24 23  2  0  0  0  0
 24 26  1  0  0  0  0
 25 24  1  0  0  0  0
 26 20  2  0  0  0  0
 27 28  1  0  0  0  0
 27 26  1  0  0  0  0
 30 31  1  0  0  0  0
 31 29  1  0  0  0  0
M  END
>  <MODEL>
9

>  <REMARK>
  Name = ZINC19866771
                            x       y       z     vdW  Elec       q    Type
                         _______ _______ _______ _____ _____    ______ ____

>  <TORSDO>
F 10

>  <minimizedAffinity>
-6.8532235847988856

$$$$
ZINC13618503
 OpenBabel10211216153D

 31 32  0  0  0  0  0  0  0  0999 V2000
   50.5770   52.6730   20.6120 N   0  0  0  0  0  0  0  0  0  0  0  0
   50.3200   51.9600   21.2190 H   0  0  0  0  0  0  0  0  0  0  0  0
   49.8170   56.2520   21.0500 C   0  0  0  0  0  0  0  0  0  0  0  0
   50.7800   56.6070   21.9970 C   0  0  0  0  0  0  0  0  0  0  0  0
   51.6610   55.6580   22.4730 C   0  0  0  0  0  0  0  0  0  0  0  0
   51.5910   54.3540   22.0180 C   0  0  0  0  0  0  0  0  0  0  0  0
   50.6400   53.9930   21.0730 C   0  0  0  0  0  0  0  0  0  0  0  0
   49.7490   54.9380   20.5890 C   0  0  0  0  0  0  0  0  0  0  0  0
   48.6580   57.3840   19.2130 N   0  0  0  0  0  0  0  0  0  0  0  0
   49.1260   56.8010   18.5950 H   0  0  0  0  0  0  0  0  0  0  0  0
   48.8700   57.2670   20.5390 C   0  0  0  0  0  0  0  0  0  0  0  0
   48.2850   57.9970   21.3150 O   0  0  0  0  0  0  0  0  0  0  0  0
   47.7200   58.3890   18.7070 C   0  0  0  0  0  0  0  0  0  0  0  0
   47.3710   58.0730   17.2510 C   0  0  0  0  0  0  0  0  0  0  0  0
   48.0460   56.6710   15.4280 C   0  0  0  0  0  0  0  0  0  0  0  0
   48.0690   56.8960   16.8390 O   0  0  0  0  0  0  0  0  0  0  0  0
   50.8740   52.3910   19.3280 C   0  0  0  0  0  0  0  0  0  0  0  0
   52.3680   52.9010   18.6630 S   0  0  0  0  0  0  0  0  0  0  0  0
   49.9960   51.7090   18.5680 N   0  0  0  0  0  0  0  0  0  0  0  0
   49.5210   52.1590   17.8510 H   0  0  0  0  0  0  0  0  0  0  0  0
   49.7770   50.3990   18.8010 C   0  0  0  0  0  0  0  0  0  0  0  0
   50.3710   49.8350   19.6980 O   0  0  0  0  0  0  0  0  0  0  0  0
   48.8160   49.6530   17.9680 C   0  0  0  0  0  0  0  0  0  0  0  0
   47.7170   49.0220   18.5580 C   0  0  0  0  0  0  0  0  0  0  0  0
   46.8220   48.3260   17.7740 C   0  0  0  0  0  0  0  0  0  0  0  0
   45.3350   47.4740   18.5720 Br  0  0  0  0  0  0  0  0  0  0  0  0
   47.0040   48.2540   16.4010 C   0  0  0  0  0  0  0  0  0  0  0  0
   48.0890   48.8680   15.8070 C   0  0  0  0  0  0  0  0  0  0  0  0
   48.9990   49.5720   16.5810 C   0  0  0  0  0  0  0  0  0  0  0  0
   50.0610   50.1800   15.9980 O   0  0  0  0  0  0  0  0  0  0  0  0
   50.4000   49.7670   14.6730 C   0  0  0  0  0  0  0  0  0  0  0  0
  1  7  1  0  0  0  0
  1  2  1  0  0  0  0
  3  4  1  0  0  0  0
  4  5  2  0  0  0  0
  6  5  1  0  0  0  0
  7  6  2  0  0  0  0
  8  3  2  0  0  0  0
  8  7  1  0  0  0  0
  9 11  1  0  0  0  0
 10  9  1  0  0  0  0
 11  3  1  0  0  0  0
 11 12  2  0  0  0  0
 13  9  1  0  0  0  0
 14 13  1  0  0  0  0
 15 16  1  0  0  0  0
 16 14  1  0  0  0  0
 17  1  1  0  0  0  0
 18 17  2  0  0  0  0
 19 21  1  0  0  0  0
 19 17  1  0  0  0  0
 20 19  1  0  0  0  0
 21 22  2  0  0  0  0
 23 24  1  0  0  0  0
 23 21  1  0  0  0  0
 25 24  2  0  0  0  0
 25 26  1  0  0  0  0
 27 25  1  0  0  0  0
 28 27  2  0  0  0  0
 28 29  1  0  0  0  0
 29 23  2  0  0  0  0
 30 29  1  0  0  0  0
 31 30  1  0  0  0  0
M  END
>  <MODEL>
1

>  <REMARK>
  Name = ZINC13618503
                            x       y       z     vdW  Elec       q    Type
                         _______ _______ _______ _____ _____    ______ ____

>  <TORSDO>
F 9

>  <minimizedAffinity>
-8.3482695637113853

$$$$
ZINC13618503
 OpenBabel10211216153D

 31 32  0  0  0  0  0  0  0  0999 V2000
   51.0760   51.4120   17.8280 N   0  0  0  0  0  0  0  0  0  0  0  0
   51.7010   51.3360   17.0890 H   0  0  0  0  0  0  0  0  0  0  0  0
   47.5500   50.3620   17.6100 C   0  0  0  0  0  0  0  0  0  0  0  0
   46.9700   51.5150   17.0780 C   0  0  0  0  0  0  0  0  0  0  0  0
   47.7520   52.6170   16.8020 C   0  0  0  0  0  0  0  0  0  0  0  0
   49.1120   52.5850   17.0550 C   0  0  0  0  0  0  0  0  0  0  0  0
   49.6990   51.4400   17.5790 C   0  0  0  0  0  0  0  0  0  0  0  0
   48.9210   50.3290   17.8600 C   0  0  0  0  0  0  0  0  0  0  0  0
   45.4520   49.1100   17.4330 N   0  0  0  0  0  0  0  0  0  0  0  0
   45.0960   49.8350   16.8960 H   0  0  0  0  0  0  0  0  0  0  0  0
   46.7120   49.1800   17.9070 C   0  0  0  0  0  0  0  0  0  0  0  0
   47.1600   48.2730   18.5800 O   0  0  0  0  0  0  0  0  0  0  0  0
   44.6230   47.9400   17.7280 C   0  0  0  0  0  0  0  0  0  0  0  0
   44.5630   47.0340   16.4960 C   0  0  0  0  0  0  0  0  0  0  0  0
   44.3120   47.5150   14.1610 C   0  0  0  0  0  0  0  0  0  0  0  0
   43.7810   47.6650   15.4800 O   0  0  0  0  0  0  0  0  0  0  0  0
   51.5340   51.4900   19.0930 C   0  0  0  0  0  0  0  0  0  0  0  0
   52.3960   50.1760   19.7730 S   0  0  0  0  0  0  0  0  0  0  0  0
   51.3150   52.6020   19.8210 N   0  0  0  0  0  0  0  0  0  0  0  0
   50.7970   52.5520   20.6390 H   0  0  0  0  0  0  0  0  0  0  0  0
   51.8190   53.7850   19.4140 C   0  0  0  0  0  0  0  0  0  0  0  0
   52.4690   53.8480   18.3900 O   0  0  0  0  0  0  0  0  0  0  0  0
   51.5800   55.0010   20.2120 C   0  0  0  0  0  0  0  0  0  0  0  0
   52.6450   55.8400   20.5510 C   0  0  0  0  0  0  0  0  0  0  0  0
   52.4140   56.9770   21.2970 C   0  0  0  0  0  0  0  0  0  0  0  0
   53.8560   58.1120   21.7550 Br  0  0  0  0  0  0  0  0  0  0  0  0
   51.1280   57.2950   21.7070 C   0  0  0  0  0  0  0  0  0  0  0  0
   50.0690   56.4710   21.3830 C   0  0  0  0  0  0  0  0  0  0  0  0
   50.2830   55.3240   20.6340 C   0  0  0  0  0  0  0  0  0  0  0  0
   49.2410   54.5180   20.3100 O   0  0  0  0  0  0  0  0  0  0  0  0
   48.1690   55.1070   19.5720 C   0  0  0  0  0  0  0  0  0  0  0  0
  1 17  1  0  0  0  0
  2  1  1  0  0  0  0
  3  8  1  0  0  0  0
  3 11  1  0  0  0  0
  4  3  2  0  0  0  0
  5  6  2  0  0  0  0
  5  4  1  0  0  0  0
  6  7  1  0  0  0  0
  7  1  1  0  0  0  0
  7  8  2  0  0  0  0
  9 13  1  0  0  0  0
  9 11  1  0  0  0  0
 10  9  1  0  0  0  0
 11 12  2  0  0  0  0
 14 13  1  0  0  0  0
 15 16  1  0  0  0  0
 16 14  1  0  0  0  0
 17 18  2  0  0  0  0
 17 19  1  0  0  0  0
 19 20  1  0  0  0  0
 21 19  1  0  0  0  0
 21 23  1  0  0  0  0
 22 21  2  0  0  0  0
 23 24  2  0  0  0  0
 23 29  1  0  0  0  0
 24 25  1  0  0  0  0
 25 27  2  0  0  0  0
 25 26  1  0  0  0  0
 28 27  1  0  0  0  0
 29 28  2  0  0  0  0
 30 29  1  0  0  0  0
 31 30  1  0  0  0  0
M  END
>  <MODEL>
2

>  <REMARK>
  Name = ZINC13618503
                            x       y       z     vdW  Elec       q    Type
                         _______ _______ _______ _____ _____    ______ ____

>  <TORSDO>
F 9

>  <minimizedAffinity>
-8.1327586018979492

$$$$
ZINC13618503
 OpenBabel10211216153D

 31 32  0  0  0  0  0  0  0  0999 V2000
   50.8430   51.5530   20.4450 N   0  0  0  0  0  0  0  0  0  0  0  0
   50.9240   50.8500   21.1090 H   0  0  0  0  0  0  0  0  0  0  0  0
   49.9680   55.1290   20.6240 C   0  0  0  0  0  0  0  0  0  0  0  0
   50.8090   55.5490   21.6560 C   0  0  0  0  0  0  0  0  0  0  0  0
   51.6480   54.6450   22.2740 C   0  0  0  0  0  0  0  0  0  0  0  0
   51.6560   53.3200   21.8770 C   0  0  0  0  0  0  0  0  0  0  0  0
   50.8270   52.8940   20.8470 C   0  0  0  0  0  0  0  0  0  0  0  0
   49.9800   53.7950   20.2200 C   0  0  0  0  0  0  0  0  0  0  0  0
   49.0160   56.1580   18.6160 N   0  0  0  0  0  0  0  0  0  0  0  0
   49.5710   55.5670   18.0830 H   0  0  0  0  0  0  0  0  0  0  0  0
   49.0670   56.0970   19.9620 C   0  0  0  0  0  0  0  0  0  0  0  0
   48.3730   56.8370   20.6310 O   0  0  0  0  0  0  0  0  0  0  0  0
   48.1240   57.1160   17.9600 C   0  0  0  0  0  0  0  0  0  0  0  0
   48.0850   56.8300   16.4570 C   0  0  0  0  0  0  0  0  0  0  0  0
   46.5900   58.6860   16.7130 C   0  0  0  0  0  0  0  0  0  0  0  0
   47.1690   57.7270   15.8260 O   0  0  0  0  0  0  0  0  0  0  0  0
   50.7460   51.2400   19.1380 C   0  0  0  0  0  0  0  0  0  0  0  0
   52.1300   51.3210   18.1330 S   0  0  0  0  0  0  0  0  0  0  0  0
   49.5600   50.8620   18.6220 N   0  0  0  0  0  0  0  0  0  0  0  0
   48.9930   51.5130   18.1810 H   0  0  0  0  0  0  0  0  0  0  0  0
   49.1620   49.5770   18.7180 C   0  0  0  0  0  0  0  0  0  0  0  0
   49.8720   48.7610   19.2710 O   0  0  0  0  0  0  0  0  0  0  0  0
   47.8640   49.1640   18.1530 C   0  0  0  0  0  0  0  0  0  0  0  0
   46.9620   48.4300   18.9290 C   0  0  0  0  0  0  0  0  0  0  0  0
   45.7500   48.0470   18.3940 C   0  0  0  0  0  0  0  0  0  0  0  0
   44.5290   47.0560   19.4440 Br  0  0  0  0  0  0  0  0  0  0  0  0
   45.4190   48.3910   17.0920 C   0  0  0  0  0  0  0  0  0  0  0  0
   46.3050   49.1100   16.3140 C   0  0  0  0  0  0  0  0  0  0  0  0
   47.5280   49.5040   16.8360 C   0  0  0  0  0  0  0  0  0  0  0  0
   48.3960   50.2150   16.0740 O   0  0  0  0  0  0  0  0  0  0  0  0
   48.8720   49.5930   14.8790 C   0  0  0  0  0  0  0  0  0  0  0  0
  1  7  1  0  0  0  0
  1  2  1  0  0  0  0
  3  4  1  0  0  0  0
  4  5  2  0  0  0  0
  6  5  1  0  0  0  0
  7  6  2  0  0  0  0
  8  3  2  0  0  0  0
  8  7  1  0  0  0  0
  9 11  1  0  0  0  0
 10  9  1  0  0  0  0
 11  3  1  0  0  0  0
 11 12  2  0  0  0  0
 13  9  1  0  0  0  0
 14 13  1  0  0  0  0
 16 14  1  0  0  0  0
 16 15  1  0  0  0  0
 17  1  1  0  0  0  0
 18 17  2  0  0  0  0
 19 21  1  0  0  0  0
 19 17  1  0  0  0  0
 20 19  1  0  0  0  0
 21 22  2  0  0  0  0
 23 21  1  0  0  0  0
 23 24  2  0  0  0  0
 25 24  1  0  0  0  0
 25 26  1  0  0  0  0
 27 25  2  0  0  0  0
 28 29  2  0  0  0  0
 28 27  1  0  0  0  0
 29 23  1  0  0  0  0
 30 29  1  0  0  0  0
 31 30  1  0  0  0  0
M  END
>  <MODEL>
3

>  <REMARK>
  Name = ZINC13618503
                            x       y       z     vdW  Elec       q    Type
                         _______ _______ _______ _____ _____    ______ ____

>  <TORSDO>
F 9

>  <minimizedAffinity>
-8.083980458529572

$$$$
ZINC13618503
 OpenBabel10211216153D

 31 32  0  0  0  0  0  0  0  0999 V2000
   51.1250   52.1180   18.1150 N   0  0  0  0  0  0  0  0  0  0  0  0
   51.8110   52.1570   17.4300 H   0  0  0  0  0  0  0  0  0  0  0  0
   47.9920   50.2390   17.6280 C   0  0  0  0  0  0  0  0  0  0  0  0
   47.1840   51.2270   17.0630 C   0  0  0  0  0  0  0  0  0  0  0  0
   47.6870   52.4940   16.8540 C   0  0  0  0  0  0  0  0  0  0  0  0
   48.9910   52.7910   17.2060 C   0  0  0  0  0  0  0  0  0  0  0  0
   49.8050   51.8130   17.7640 C   0  0  0  0  0  0  0  0  0  0  0  0
   49.3080   50.5370   17.9800 C   0  0  0  0  0  0  0  0  0  0  0  0
   46.2260   48.7220   18.3890 N   0  0  0  0  0  0  0  0  0  0  0  0
   45.6960   49.5000   18.6250 H   0  0  0  0  0  0  0  0  0  0  0  0
   47.4530   48.8800   17.8550 C   0  0  0  0  0  0  0  0  0  0  0  0
   48.1180   47.9070   17.5590 O   0  0  0  0  0  0  0  0  0  0  0  0
   45.6930   47.3760   18.6130 C   0  0  0  0  0  0  0  0  0  0  0  0
   44.3370   47.2420   17.9170 C   0  0  0  0  0  0  0  0  0  0  0  0
   44.4600   47.3720   15.5260 C   0  0  0  0  0  0  0  0  0  0  0  0
   44.3120   48.0800   16.7590 O   0  0  0  0  0  0  0  0  0  0  0  0
   51.4430   52.3570   19.4020 C   0  0  0  0  0  0  0  0  0  0  0  0
   52.4750   51.2800   20.2440 S   0  0  0  0  0  0  0  0  0  0  0  0
   50.9500   53.4440   20.0270 N   0  0  0  0  0  0  0  0  0  0  0  0
   50.3290   53.3400   20.7650 H   0  0  0  0  0  0  0  0  0  0  0  0
   51.3210   54.6780   19.6290 C   0  0  0  0  0  0  0  0  0  0  0  0
   52.0990   54.8090   18.7050 O   0  0  0  0  0  0  0  0  0  0  0  0
   50.7820   55.8670   20.3130 C   0  0  0  0  0  0  0  0  0  0  0  0
   49.4360   56.2140   20.1620 C   0  0  0  0  0  0  0  0  0  0  0  0
   48.9380   57.3280   20.8060 C   0  0  0  0  0  0  0  0  0  0  0  0
   47.1180   57.7970   20.6030 Br  0  0  0  0  0  0  0  0  0  0  0  0
   49.7650   58.1010   21.6070 C   0  0  0  0  0  0  0  0  0  0  0  0
   51.0970   57.7720   21.7580 C   0  0  0  0  0  0  0  0  0  0  0  0
   51.6150   56.6550   21.1180 C   0  0  0  0  0  0  0  0  0  0  0  0
   52.9220   56.3280   21.2720 O   0  0  0  0  0  0  0  0  0  0  0  0
   53.8850   57.3420   20.9770 C   0  0  0  0  0  0  0  0  0  0  0  0
  1 17  1  0  0  0  0
  2  1  1  0  0  0  0
  3 11  1  0  0  0  0
  3  8  2  0  0  0  0
  4  3  1  0  0  0  0
  5  4  2  0  0  0  0
  5  6  1  0  0  0  0
  6  7  2  0  0  0  0
  7  8  1  0  0  0  0
  7  1  1  0  0  0  0
  9 13  1  0  0  0  0
  9 10  1  0  0  0  0
 11  9  1  0  0  0  0
 12 11  2  0  0  0  0
 14 13  1  0  0  0  0
 15 16  1  0  0  0  0
 16 14  1  0  0  0  0
 17 19  1  0  0  0  0
 17 18  2  0  0  0  0
 19 20  1  0  0  0  0
 21 19  1  0  0  0  0
 21 23  1  0  0  0  0
 22 21  2  0  0  0  0
 23 29  1  0  0  0  0
 24 23  2  0  0  0  0
 24 25  1  0  0  0  0
 25 27  2  0  0  0  0
 26 25  1  0  0  0  0
 27 28  1  0  0  0  0
 29 30  1  0  0  0  0
 29 28  2  0  0  0  0
 31 30  1  0  0  0  0
M  END
>  <MODEL>
4

>  <REMARK>
  Name = ZINC13618503
                            x       y       z     vdW  Elec       q    Type
                         _______ _______ _______ _____ _____    ______ ____

>  <TORSDO>
F 9

>  <minimizedAffinity>
-8.0379242350624249

$$$$
ZINC13618503
 OpenBabel10211216153D

 31 32  0  0  0  0  0  0  0  0999 V2000
   49.7570   51.5780   16.9360 N   0  0  0  0  0  0  0  0  0  0  0  0
   50.4270   51.6740   16.2400 H   0  0  0  0  0  0  0  0  0  0  0  0
   50.9220   51.9520   20.4130 C   0  0  0  0  0  0  0  0  0  0  0  0
   50.9170   50.6200   20.8310 C   0  0  0  0  0  0  0  0  0  0  0  0
   50.5290   49.6240   19.9580 C   0  0  0  0  0  0  0  0  0  0  0  0
   50.1400   49.9420   18.6700 C   0  0  0  0  0  0  0  0  0  0  0  0
   50.1470   51.2640   18.2430 C   0  0  0  0  0  0  0  0  0  0  0  0
   50.5350   52.2710   19.1120 C   0  0  0  0  0  0  0  0  0  0  0  0
   51.1330   54.3140   21.0250 N   0  0  0  0  0  0  0  0  0  0  0  0
   50.7130   54.5430   20.1800 H   0  0  0  0  0  0  0  0  0  0  0  0
   51.3370   53.0210   21.3460 C   0  0  0  0  0  0  0  0  0  0  0  0
   51.8630   52.7330   22.4040 O   0  0  0  0  0  0  0  0  0  0  0  0
   51.5430   55.3730   21.9500 C   0  0  0  0  0  0  0  0  0  0  0  0
   52.1350   56.5410   21.1580 C   0  0  0  0  0  0  0  0  0  0  0  0
   54.1740   57.7750   20.9040 C   0  0  0  0  0  0  0  0  0  0  0  0
   53.3830   56.9250   21.7380 O   0  0  0  0  0  0  0  0  0  0  0  0
   48.4530   51.7480   16.6430 C   0  0  0  0  0  0  0  0  0  0  0  0
   47.8160   53.3270   16.4540 S   0  0  0  0  0  0  0  0  0  0  0  0
   47.6500   50.6760   16.5000 N   0  0  0  0  0  0  0  0  0  0  0  0
   46.8950   50.5510   17.0960 H   0  0  0  0  0  0  0  0  0  0  0  0
   47.8940   49.7760   15.5250 C   0  0  0  0  0  0  0  0  0  0  0  0
   48.8390   49.9320   14.7780 O   0  0  0  0  0  0  0  0  0  0  0  0
   47.0150   48.6030   15.3680 C   0  0  0  0  0  0  0  0  0  0  0  0
   46.3800   48.3600   14.1470 C   0  0  0  0  0  0  0  0  0  0  0  0
   45.5590   47.2610   14.0060 C   0  0  0  0  0  0  0  0  0  0  0  0
   44.7010   46.9310   12.3540 Br  0  0  0  0  0  0  0  0  0  0  0  0
   45.3660   46.3910   15.0690 C   0  0  0  0  0  0  0  0  0  0  0  0
   45.9830   46.6250   16.2820 C   0  0  0  0  0  0  0  0  0  0  0  0
   46.8110   47.7250   16.4410 C   0  0  0  0  0  0  0  0  0  0  0  0
   47.4230   47.9510   17.6300 O   0  0  0  0  0  0  0  0  0  0  0  0
   46.5790   48.1890   18.7590 C   0  0  0  0  0  0  0  0  0  0  0  0
  1  7  1  0  0  0  0
  2  1  1  0  0  0  0
  3  4  1  0  0  0  0
  3 11  1  0  0  0  0
  5  4  2  0  0  0  0
  6  5  1  0  0  0  0
  7  6  2  0  0  0  0
  7  8  1  0  0  0  0
  8  3  2  0  0  0  0
  9 11  1  0  0  0  0
  9 13  1  0  0  0  0
 10  9  1  0  0  0  0
 11 12  2  0  0  0  0
 14 16  1  0  0  0  0
 14 13  1  0  0  0  0
 15 16  1  0  0  0  0
 17  1  1  0  0  0  0
 18 17  2  0  0  0  0
 19 17  1  0  0  0  0
 19 20  1  0  0  0  0
 21 19  1  0  0  0  0
 22 21  2  0  0  0  0
 23 21  1  0  0  0  0
 23 29  2  0  0  0  0
 24 23  1  0  0  0  0
 25 24  2  0  0  0  0
 25 27  1  0  0  0  0
 26 25  1  0  0  0  0
 27 28  2  0  0  0  0
 28 29  1  0  0  0  0
 29 30  1  0  0  0  0
 30 31  1  0  0  0  0
M  END
>  <MODEL>
5

>  <REMARK>
  Name = ZINC13618503
                            x       y       z     vdW  Elec       q    Type
                         _______ _______ _______ _____ _____    ______ ____

>  <TORSDO>
F 9

>  <minimizedAffinity>
-7.9431465837036468

$$$$
ZINC13618503
 OpenBabel10211216153D

 31 32  0  0  0  0  0  0  0  0999 V2000
   47.2980   50.8550   16.7800 N   0  0  0  0  0  0  0  0  0  0  0  0
   46.7900   51.5550   16.3390 H   0  0  0  0  0  0  0  0  0  0  0  0
   45.1830   47.8420   16.5960 C   0  0  0  0  0  0  0  0  0  0  0  0
   45.4430   47.2690   17.8420 C   0  0  0  0  0  0  0  0  0  0  0  0
   46.3110   47.8860   18.7190 C   0  0  0  0  0  0  0  0  0  0  0  0
   46.9290   49.0720   18.3660 C   0  0  0  0  0  0  0  0  0  0  0  0
   46.6730   49.6530   17.1300 C   0  0  0  0  0  0  0  0  0  0  0  0
   45.8030   49.0400   16.2420 C   0  0  0  0  0  0  0  0  0  0  0  0
   43.9160   45.8890   15.8370 N   0  0  0  0  0  0  0  0  0  0  0  0
   44.2820   45.3930   16.5860 H   0  0  0  0  0  0  0  0  0  0  0  0
   44.2540   47.1810   15.6550 C   0  0  0  0  0  0  0  0  0  0  0  0
   43.7950   47.8040   14.7170 O   0  0  0  0  0  0  0  0  0  0  0  0
   42.9950   45.2350   14.9040 C   0  0  0  0  0  0  0  0  0  0  0  0
   43.3390   43.7470   14.8080 C   0  0  0  0  0  0  0  0  0  0  0  0
   45.4960   42.9160   14.1710 C   0  0  0  0  0  0  0  0  0  0  0  0
   44.7050   43.5500   15.1790 O   0  0  0  0  0  0  0  0  0  0  0  0
   48.6040   51.0410   17.0550 C   0  0  0  0  0  0  0  0  0  0  0  0
   49.7970   50.2050   16.1530 S   0  0  0  0  0  0  0  0  0  0  0  0
   48.9720   51.8850   18.0380 N   0  0  0  0  0  0  0  0  0  0  0  0
   49.3000   51.5350   18.8810 H   0  0  0  0  0  0  0  0  0  0  0  0
   48.8870   53.2180   17.8500 C   0  0  0  0  0  0  0  0  0  0  0  0
   48.4770   53.6570   16.7940 O   0  0  0  0  0  0  0  0  0  0  0  0
   49.2900   54.1410   18.9270 C   0  0  0  0  0  0  0  0  0  0  0  0
   48.5140   55.2680   19.2130 C   0  0  0  0  0  0  0  0  0  0  0  0
   48.8970   56.1270   20.2210 C   0  0  0  0  0  0  0  0  0  0  0  0
   47.8450   57.6500   20.6100 Br  0  0  0  0  0  0  0  0  0  0  0  0
   50.0450   55.8760   20.9570 C   0  0  0  0  0  0  0  0  0  0  0  0
   50.8230   54.7700   20.6790 C   0  0  0  0  0  0  0  0  0  0  0  0
   50.4540   53.8950   19.6680 C   0  0  0  0  0  0  0  0  0  0  0  0
   51.2140   52.8050   19.3990 O   0  0  0  0  0  0  0  0  0  0  0  0
   52.4870   53.0350   18.7910 C   0  0  0  0  0  0  0  0  0  0  0  0
  1 17  1  0  0  0  0
  1  7  1  0  0  0  0
  2  1  1  0  0  0  0
  3  4  1  0  0  0  0
  4  5  2  0  0  0  0
  6  5  1  0  0  0  0
  7  6  2  0  0  0  0
  8  3  2  0  0  0  0
  8  7  1  0  0  0  0
  9 10  1  0  0  0  0
 11  9  1  0  0  0  0
 11  3  1  0  0  0  0
 12 11  2  0  0  0  0
 13  9  1  0  0  0  0
 14 13  1  0  0  0  0
 14 16  1  0  0  0  0
 15 16  1  0  0  0  0
 17 19  1  0  0  0  0
 18 17  2  0  0  0  0
 19 20  1  0  0  0  0
 21 19  1  0  0  0  0
 21 23  1  0  0  0  0
 22 21  2  0  0  0  0
 23 24  2  0  0  0  0
 23 29  1  0  0  0  0
 24 25  1  0  0  0  0
 25 26  1  0  0  0  0
 25 27  2  0  0  0  0
 28 27  1  0  0  0  0
 29 28  2  0  0  0  0
 30 29  1  0  0  0  0
 31 30  1  0  0  0  0
M  END
>  <MODEL>
6

>  <REMARK>
  Name = ZINC13618503
                            x       y       z     vdW  Elec       q    Type
                         _______ _______ _______ _____ _____    ______ ____

>  <TORSDO>
F 9

>  <minimizedAffinity>
-7.6210324099783584

$$$$
ZINC13618503
 OpenBabel10211216153D

 31 32  0  0  0  0  0  0  0  0999 V2000
   48.7690   55.4290   18.2120 N   0  0  0  0  0  0  0  0  0  0  0  0
   48.3200   55.3160   17.3580 H   0  0  0  0  0  0  0  0  0  0  0  0
   47.6150   58.7620   19.2810 C   0  0  0  0  0  0  0  0  0  0  0  0
   47.8470   58.6870   20.6550 C   0  0  0  0  0  0  0  0  0  0  0  0
   48.3800   57.5380   21.2030 C   0  0  0  0  0  0  0  0  0  0  0  0
   48.6810   56.4570   20.3950 C   0  0  0  0  0  0  0  0  0  0  0  0
   48.4580   56.5240   19.0260 C   0  0  0  0  0  0  0  0  0  0  0  0
   47.9220   57.6730   18.4650 C   0  0  0  0  0  0  0  0  0  0  0  0
   46.9500   61.1140   19.4320 N   0  0  0  0  0  0  0  0  0  0  0  0
   47.2590   61.1150   20.3520 H   0  0  0  0  0  0  0  0  0  0  0  0
   47.0430   59.9920   18.6920 C   0  0  0  0  0  0  0  0  0  0  0  0
   46.6560   59.9900   17.5390 O   0  0  0  0  0  0  0  0  0  0  0  0
   46.3840   62.3320   18.8480 C   0  0  0  0  0  0  0  0  0  0  0  0
   45.0880   62.6920   19.5780 C   0  0  0  0  0  0  0  0  0  0  0  0
   43.5650   64.0750   18.3460 C   0  0  0  0  0  0  0  0  0  0  0  0
   44.6940   64.0190   19.2210 O   0  0  0  0  0  0  0  0  0  0  0  0
   49.6900   54.5310   18.6130 C   0  0  0  0  0  0  0  0  0  0  0  0
   51.2930   55.0380   18.9420 S   0  0  0  0  0  0  0  0  0  0  0  0
   49.3510   53.2350   18.7560 N   0  0  0  0  0  0  0  0  0  0  0  0
   49.4220   52.8070   19.6240 H   0  0  0  0  0  0  0  0  0  0  0  0
   48.9100   52.5320   17.6930 C   0  0  0  0  0  0  0  0  0  0  0  0
   48.8200   53.0670   16.6060 O   0  0  0  0  0  0  0  0  0  0  0  0
   48.5380   51.1140   17.8500 C   0  0  0  0  0  0  0  0  0  0  0  0
   47.2980   50.6590   17.3950 C   0  0  0  0  0  0  0  0  0  0  0  0
   46.9570   49.3310   17.5440 C   0  0  0  0  0  0  0  0  0  0  0  0
   45.2790   48.7140   16.9270 Br  0  0  0  0  0  0  0  0  0  0  0  0
   47.8410   48.4440   18.1380 C   0  0  0  0  0  0  0  0  0  0  0  0
   49.0670   48.8830   18.5980 C   0  0  0  0  0  0  0  0  0  0  0  0
   49.4270   50.2150   18.4560 C   0  0  0  0  0  0  0  0  0  0  0  0
   50.6330   50.6460   18.9010 O   0  0  0  0  0  0  0  0  0  0  0  0
   50.9360   50.4180   20.2790 C   0  0  0  0  0  0  0  0  0  0  0  0
  1 17  1  0  0  0  0
  1  7  1  0  0  0  0
  2  1  1  0  0  0  0
  3  4  2  0  0  0  0
  4  5  1  0  0  0  0
  6  5  2  0  0  0  0
  7  6  1  0  0  0  0
  8  7  2  0  0  0  0
  8  3  1  0  0  0  0
  9 10  1  0  0  0  0
 11  3  1  0  0  0  0
 11  9  1  0  0  0  0
 12 11  2  0  0  0  0
 13  9  1  0  0  0  0
 13 14  1  0  0  0  0
 15 16  1  0  0  0  0
 16 14  1  0  0  0  0
 17 19  1  0  0  0  0
 17 18  2  0  0  0  0
 19 20  1  0  0  0  0
 21 23  1  0  0  0  0
 21 19  1  0  0  0  0
 22 21  2  0  0  0  0
 23 29  2  0  0  0  0
 24 25  2  0  0  0  0
 24 23  1  0  0  0  0
 25 27  1  0  0  0  0
 26 25  1  0  0  0  0
 27 28  2  0  0  0  0
 29 28  1  0  0  0  0
 29 30  1  0  0  0  0
 30 31  1  0  0  0  0
M  END
>  <MODEL>
7

>  <REMARK>
  Name = ZINC13618503
                            x       y       z     vdW  Elec       q    Type
                         _______ _______ _______ _____ _____    ______ ____

>  <TORSDO>
F 9

>  <minimizedAffinity>
-7.6030712108702305

$$$$
ZINC13618503
 OpenBabel10211216153D

 31 32  0  0  0  0  0  0  0  0999 V2000
   50.3780   55.2820   21.3590 N   0  0  0  0  0  0  0  0  0  0  0  0
   49.7850   55.4910   22.0970 H   0  0  0  0  0  0  0  0  0  0  0  0
   50.4650   52.0010   19.6810 C   0  0  0  0  0  0  0  0  0  0  0  0
   51.3340   51.3040   20.5220 C   0  0  0  0  0  0  0  0  0  0  0  0
   51.8750   51.9290   21.6260 C   0  0  0  0  0  0  0  0  0  0  0  0
   51.5630   53.2480   21.9010 C   0  0  0  0  0  0  0  0  0  0  0  0
   50.6950   53.9490   21.0730 C   0  0  0  0  0  0  0  0  0  0  0  0
   50.1460   53.3290   19.9600 C   0  0  0  0  0  0  0  0  0  0  0  0
   49.3590   50.0960   18.6090 N   0  0  0  0  0  0  0  0  0  0  0  0
   49.3620   49.6460   19.4680 H   0  0  0  0  0  0  0  0  0  0  0  0
   49.8850   51.3330   18.4960 C   0  0  0  0  0  0  0  0  0  0  0  0
   49.8820   51.8980   17.4200 O   0  0  0  0  0  0  0  0  0  0  0  0
   48.7840   49.4350   17.4360 C   0  0  0  0  0  0  0  0  0  0  0  0
   48.0420   48.1710   17.8760 C   0  0  0  0  0  0  0  0  0  0  0  0
   45.8500   47.7530   18.7500 C   0  0  0  0  0  0  0  0  0  0  0  0
   47.0560   48.5130   18.8510 O   0  0  0  0  0  0  0  0  0  0  0  0
   50.8980   56.2740   20.6090 C   0  0  0  0  0  0  0  0  0  0  0  0
   52.5630   56.6550   20.7290 S   0  0  0  0  0  0  0  0  0  0  0  0
   50.1070   56.9650   19.7650 N   0  0  0  0  0  0  0  0  0  0  0  0
   50.3470   57.0410   18.8280 H   0  0  0  0  0  0  0  0  0  0  0  0
   48.9810   57.5500   20.2220 C   0  0  0  0  0  0  0  0  0  0  0  0
   48.6810   57.4540   21.3950 O   0  0  0  0  0  0  0  0  0  0  0  0
   48.1160   58.3060   19.2980 C   0  0  0  0  0  0  0  0  0  0  0  0
   47.5820   59.5380   19.6860 C   0  0  0  0  0  0  0  0  0  0  0  0
   46.7740   60.2400   18.8170 C   0  0  0  0  0  0  0  0  0  0  0  0
   46.0520   61.9070   19.3410 Br  0  0  0  0  0  0  0  0  0  0  0  0
   46.4940   59.7330   17.5570 C   0  0  0  0  0  0  0  0  0  0  0  0
   47.0110   58.5140   17.1650 C   0  0  0  0  0  0  0  0  0  0  0  0
   47.8250   57.7940   18.0260 C   0  0  0  0  0  0  0  0  0  0  0  0
   48.3390   56.6000   17.6390 O   0  0  0  0  0  0  0  0  0  0  0  0
   48.1040   56.2000   16.2880 C   0  0  0  0  0  0  0  0  0  0  0  0
  1  2  1  0  0  0  0
  3  8  2  0  0  0  0
  3  4  1  0  0  0  0
  4  5  2  0  0  0  0
  5  6  1  0  0  0  0
  7  1  1  0  0  0  0
  7  6  2  0  0  0  0
  8  7  1  0  0  0  0
  9 10  1  0  0  0  0
 11  9  1  0  0  0  0
 11  3  1  0  0  0  0
 12 11  2  0  0  0  0
 13 14  1  0  0  0  0
 13  9  1  0  0  0  0
 14 16  1  0  0  0  0
 15 16  1  0  0  0  0
 17 18  2  0  0  0  0
 17  1  1  0  0  0  0
 19 21  1  0  0  0  0
 19 17  1  0  0  0  0
 20 19  1  0  0  0  0
 21 22  2  0  0  0  0
 23 24  1  0  0  0  0
 23 21  1  0  0  0  0
 25 26  1  0  0  0  0
 25 24  2  0  0  0  0
 27 25  1  0  0  0  0
 28 27  2  0  0  0  0
 28 29  1  0  0  0  0
 29 23  2  0  0  0  0
 30 29  1  0  0  0  0
 31 30  1  0  0  0  0
M  END
>  <MODEL>
8

>  <REMARK>
  Name = ZINC13618503
                            x       y       z     vdW  Elec       q    Type
                         _______ _______ _______ _____ _____    ______ ____

>  <TORSDO>
F 9

>  <minimizedAffinity>
-7.579068080688975

$$$$
ZINC13618503
 OpenBabel10211216153D

 31 32  0  0  0  0  0  0  0  0999 V2000
   50.6730   55.4840   19.5940 N   0  0  0  0  0  0  0  0  0  0  0  0
   51.3200   55.5680   18.8750 H   0  0  0  0  0  0  0  0  0  0  0  0
   47.9130   57.7310   18.6370 C   0  0  0  0  0  0  0  0  0  0  0  0
   47.5040   58.1850   19.8920 C   0  0  0  0  0  0  0  0  0  0  0  0
   48.1450   57.7410   21.0290 C   0  0  0  0  0  0  0  0  0  0  0  0
   49.1920   56.8430   20.9320 C   0  0  0  0  0  0  0  0  0  0  0  0
   49.6100   56.3890   19.6870 C   0  0  0  0  0  0  0  0  0  0  0  0
   48.9720   56.8290   18.5380 C   0  0  0  0  0  0  0  0  0  0  0  0
   47.1510   57.4070   16.3320 N   0  0  0  0  0  0  0  0  0  0  0  0
   47.5470   56.5220   16.3540 H   0  0  0  0  0  0  0  0  0  0  0  0
   47.2270   58.2060   17.4160 C   0  0  0  0  0  0  0  0  0  0  0  0
   46.7310   59.3150   17.3900 O   0  0  0  0  0  0  0  0  0  0  0  0
   46.4700   57.8770   15.1230 C   0  0  0  0  0  0  0  0  0  0  0  0
   45.4980   56.8010   14.6340 C   0  0  0  0  0  0  0  0  0  0  0  0
   46.9480   57.0940   12.7480 C   0  0  0  0  0  0  0  0  0  0  0  0
   45.7210   56.5540   13.2450 O   0  0  0  0  0  0  0  0  0  0  0  0
   50.7990   54.4950   20.5010 C   0  0  0  0  0  0  0  0  0  0  0  0
   51.6820   54.7650   21.9440 S   0  0  0  0  0  0  0  0  0  0  0  0
   50.2300   53.2960   20.2740 N   0  0  0  0  0  0  0  0  0  0  0  0
   49.5720   52.9450   20.8940 H   0  0  0  0  0  0  0  0  0  0  0  0
   50.5730   52.5820   19.1830 C   0  0  0  0  0  0  0  0  0  0  0  0
   51.3970   53.0210   18.4050 O   0  0  0  0  0  0  0  0  0  0  0  0
   49.9500   51.2690   18.9340 C   0  0  0  0  0  0  0  0  0  0  0  0
   48.8630   51.1620   18.0620 C   0  0  0  0  0  0  0  0  0  0  0  0
   48.2850   49.9310   17.8330 C   0  0  0  0  0  0  0  0  0  0  0  0
   46.8160   49.7850   16.6520 Br  0  0  0  0  0  0  0  0  0  0  0  0
   48.7820   48.7980   18.4600 C   0  0  0  0  0  0  0  0  0  0  0  0
   49.8510   48.8930   19.3290 C   0  0  0  0  0  0  0  0  0  0  0  0
   50.4440   50.1230   19.5700 C   0  0  0  0  0  0  0  0  0  0  0  0
   51.4980   50.2150   20.4180 O   0  0  0  0  0  0  0  0  0  0  0  0
   52.7720   49.8020   19.9190 C   0  0  0  0  0  0  0  0  0  0  0  0
  1  7  1  0  0  0  0
  1 17  1  0  0  0  0
  2  1  1  0  0  0  0
  3  4  1  0  0  0  0
  4  5  2  0  0  0  0
  6  5  1  0  0  0  0
  7  6  2  0  0  0  0
  8  3  2  0  0  0  0
  8  7  1  0  0  0  0
  9 10  1  0  0  0  0
  9 11  1  0  0  0  0
 11  3  1  0  0  0  0
 12 11  2  0  0  0  0
 13  9  1  0  0  0  0
 14 13  1  0  0  0  0
 15 16  1  0  0  0  0
 16 14  1  0  0  0  0
 17 18  2  0  0  0  0
 19 17  1  0  0  0  0
 19 20  1  0  0  0  0
 21 19  1  0  0  0  0
 22 21  2  0  0  0  0
 23 21  1  0  0  0  0
 23 29  2  0  0  0  0
 24 23  1  0  0  0  0
 25 24  2  0  0  0  0
 25 27  1  0  0  0  0
 26 25  1  0  0  0  0
 27 28  2  0  0  0  0
 28 29  1  0  0  0  0
 29 30  1  0  0  0  0
 31 30  1  0  0  0  0
M  END
>  <MODEL>
9

>  <REMARK>
  Name = ZINC13618503
                            x       y       z     vdW  Elec       q    Type
                         _______ _______ _______ _____ _____    ______ ____

>  <TORSDO>
F 9

>  <minimizedAffinity>
-7.397543365441055

$$$$
ZINC36575365
 OpenBabel10211216183D

 34 35  0  0  1  0  0  0  0  0999 V2000
   49.6860   53.6080   18.1100 N   0  0  0  0  0  0  0  0  0  0  0  0
   49.2070   52.6930   17.2440 C   0  0  0  0  0  0  0  0  0  0  0  0
   49.9480   51.8530   16.7780 O   0  0  0  0  0  0  0  0  0  0  0  0
   48.7930   54.6230   18.6720 C   0  0  0  0  0  0  0  0  0  0  0  0
   48.1130   57.0170   18.4380 C   0  0  0  0  0  0  0  0  0  0  0  0
   48.6870   55.8040   17.7040 C   0  0  0  0  0  0  0  0  0  0  0  0
   47.7510   52.7150   16.8540 C   0  0  0  0  0  0  0  0  0  0  0  0
   47.0520   51.6100   17.5150 N   0  0  0  0  0  0  0  0  0  0  0  0
   46.6570   51.7410   18.3910 H   0  0  0  0  0  0  0  0  0  0  0  0
   46.9610   50.4110   16.9070 C   0  0  0  0  0  0  0  0  0  0  0  0
   47.4570   50.2470   15.8090 O   0  0  0  0  0  0  0  0  0  0  0  0
   46.2560   49.2950   17.5740 C   0  0  0  0  0  0  0  0  0  0  0  0
   46.8490   48.6390   18.6540 C   0  0  0  0  0  0  0  0  0  0  0  0
   46.1850   47.5980   19.2720 C   0  0  0  0  0  0  0  0  0  0  0  0
   44.9360   47.2070   18.8240 C   0  0  0  0  0  0  0  0  0  0  0  0
   44.3440   47.8540   17.7530 C   0  0  0  0  0  0  0  0  0  0  0  0
   44.9930   48.8990   17.1310 C   0  0  0  0  0  0  0  0  0  0  0  0
   51.1020   53.5870   18.4890 C   0  0  2  0  0  0  0  0  0  0  0  0
   51.3960   52.3300   19.2650 C   0  0  0  0  0  0  0  0  0  0  0  0
   50.7630   52.0980   20.4720 C   0  0  0  0  0  0  0  0  0  0  0  0
   51.0330   50.9450   21.1850 C   0  0  0  0  0  0  0  0  0  0  0  0
   51.9360   50.0200   20.6930 C   0  0  0  0  0  0  0  0  0  0  0  0
   52.5710   50.2460   19.4870 C   0  0  0  0  0  0  0  0  0  0  0  0
   52.2980   51.4010   18.7670 C   0  0  0  0  0  0  0  0  0  0  0  0
   52.9170   51.6230   17.5780 O   0  0  0  0  0  0  0  0  0  0  0  0
   53.1130   50.8180   17.0800 H   0  0  0  0  0  0  0  0  0  0  0  0
   51.4100   54.7890   19.3440 C   0  0  0  0  0  0  0  0  0  0  0  0
   51.2560   54.7220   20.6810 N   0  0  0  0  0  0  0  0  0  0  0  0
   51.0040   53.8830   21.0990 H   0  0  0  0  0  0  0  0  0  0  0  0
   51.7960   55.8170   18.8290 O   0  0  0  0  0  0  0  0  0  0  0  0
   51.4700   55.9150   21.5040 C   0  0  0  0  0  0  0  0  0  0  0  0
   50.2360   56.8150   21.4270 C   0  0  0  0  0  0  0  0  0  0  0  0
   52.6920   56.6770   20.9880 C   0  0  0  0  0  0  0  0  0  0  0  0
   51.7060   55.4970   22.9560 C   0  0  0  0  0  0  0  0  0  0  0  0
  1  4  1  0  0  0  0
  2  1  1  0  0  0  0
  3  2  2  0  0  0  0
  6  5  1  0  0  0  0
  6  4  1  0  0  0  0
  7  2  1  0  0  0  0
  7  8  1  0  0  0  0
  8  9  1  0  0  0  0
 10  8  1  0  0  0  0
 10 12  1  0  0  0  0
 11 10  2  0  0  0  0
 12 13  1  0  0  0  0
 13 14  2  0  0  0  0
 15 14  1  0  0  0  0
 16 15  2  0  0  0  0
 17 12  2  0  0  0  0
 17 16  1  0  0  0  0
 18  1  1  1  0  0  0
 18 19  1  0  0  0  0
 18 27  1  0  0  0  0
 19 20  1  0  0  0  0
 20 21  2  0  0  0  0
 22 21  1  0  0  0  0
 23 22  2  0  0  0  0
 24 19  2  0  0  0  0
 24 23  1  0  0  0  0
 25 24  1  0  0  0  0
 26 25  1  0  0  0  0
 27 28  1  0  0  0  0
 28 29  1  0  0  0  0
 28 31  1  0  0  0  0
 30 27  2  0  0  0  0
 31 34  1  0  0  0  0
 32 31  1  0  0  0  0
 33 31  1  0  0  0  0
M  END
>  <MODEL>
1

>  <REMARK>
  Name = ZINC36575365
                            x       y       z     vdW  Elec       q    Type
                         _______ _______ _______ _____ _____    ______ ____

>  <TORSDO>
F 10

>  <minimizedAffinity>
-8.5492858039932855

$$$$
ZINC36575365
 OpenBabel10211216183D

 34 35  0  0  1  0  0  0  0  0999 V2000
   49.5570   55.8180   19.8990 N   0  0  0  0  0  0  0  0  0  0  0  0
   48.7760   56.8940   20.1180 C   0  0  0  0  0  0  0  0  0  0  0  0
   48.7830   57.4370   21.2030 O   0  0  0  0  0  0  0  0  0  0  0  0
   49.5480   55.1600   18.5900 C   0  0  0  0  0  0  0  0  0  0  0  0
   48.2870   53.6010   17.0990 C   0  0  0  0  0  0  0  0  0  0  0  0
   48.3310   54.2390   18.4890 C   0  0  0  0  0  0  0  0  0  0  0  0
   47.8930   57.4210   19.0160 C   0  0  0  0  0  0  0  0  0  0  0  0
   47.2810   58.6820   19.4430 N   0  0  0  0  0  0  0  0  0  0  0  0
   47.2320   58.9030   20.3860 H   0  0  0  0  0  0  0  0  0  0  0  0
   46.7820   59.5330   18.5240 C   0  0  0  0  0  0  0  0  0  0  0  0
   46.8420   59.2560   17.3420 O   0  0  0  0  0  0  0  0  0  0  0  0
   46.1630   60.8050   18.9550 C   0  0  0  0  0  0  0  0  0  0  0  0
   46.9580   61.8310   19.4710 C   0  0  0  0  0  0  0  0  0  0  0  0
   46.3730   63.0160   19.8710 C   0  0  0  0  0  0  0  0  0  0  0  0
   45.0050   63.1880   19.7600 C   0  0  0  0  0  0  0  0  0  0  0  0
   44.2130   62.1750   19.2500 C   0  0  0  0  0  0  0  0  0  0  0  0
   44.7840   60.9880   18.8400 C   0  0  0  0  0  0  0  0  0  0  0  0
   50.4150   55.3040   20.9700 C   0  0  2  0  0  0  0  0  0  0  0  0
   51.6960   56.0970   21.0110 C   0  0  0  0  0  0  0  0  0  0  0  0
   52.5430   56.1000   19.9200 C   0  0  0  0  0  0  0  0  0  0  0  0
   53.7180   56.8260   19.9570 C   0  0  0  0  0  0  0  0  0  0  0  0
   54.0500   57.5520   21.0870 C   0  0  0  0  0  0  0  0  0  0  0  0
   53.2070   57.5530   22.1810 C   0  0  0  0  0  0  0  0  0  0  0  0
   52.0230   56.8290   22.1440 C   0  0  0  0  0  0  0  0  0  0  0  0
   51.1890   56.8330   23.2170 O   0  0  0  0  0  0  0  0  0  0  0  0
   51.3860   56.1480   23.8710 H   0  0  0  0  0  0  0  0  0  0  0  0
   50.7300   53.8540   20.7100 C   0  0  0  0  0  0  0  0  0  0  0  0
   51.5350   53.5130   19.6840 N   0  0  0  0  0  0  0  0  0  0  0  0
   51.9600   54.2040   19.1500 H   0  0  0  0  0  0  0  0  0  0  0  0
   50.2590   52.9930   21.4220 O   0  0  0  0  0  0  0  0  0  0  0  0
   51.7700   52.1010   19.3750 C   0  0  0  0  0  0  0  0  0  0  0  0
   52.5440   51.4500   20.5230 C   0  0  0  0  0  0  0  0  0  0  0  0
   52.5840   51.9900   18.0840 C   0  0  0  0  0  0  0  0  0  0  0  0
   50.4290   51.3880   19.1950 C   0  0  0  0  0  0  0  0  0  0  0  0
  1  2  1  0  0  0  0
  2  3  2  0  0  0  0
  4  1  1  0  0  0  0
  5  6  1  0  0  0  0
  6  4  1  0  0  0  0
  7  8  1  0  0  0  0
  7  2  1  0  0  0  0
  8  9  1  0  0  0  0
 10 12  1  0  0  0  0
 10  8  1  0  0  0  0
 11 10  2  0  0  0  0
 12 13  1  0  0  0  0
 13 14  2  0  0  0  0
 15 14  1  0  0  0  0
 16 15  2  0  0  0  0
 17 12  2  0  0  0  0
 17 16  1  0  0  0  0
 18  1  1  6  0  0  0
 18 19  1  0  0  0  0
 19 24  2  0  0  0  0
 20 21  2  0  0  0  0
 20 19  1  0  0  0  0
 21 22  1  0  0  0  0
 22 23  2  0  0  0  0
 24 23  1  0  0  0  0
 24 25  1  0  0  0  0
 25 26  1  0  0  0  0
 27 18  1  0  0  0  0
 27 30  2  0  0  0  0
 28 27  1  0  0  0  0
 29 28  1  0  0  0  0
 31 28  1  0  0  0  0
 31 32  1  0  0  0  0
 33 31  1  0  0  0  0
 34 31  1  0  0  0  0
M  END
>  <MODEL>
2

>  <REMARK>
  Name = ZINC36575365
                            x       y       z     vdW  Elec       q    Type
                         _______ _______ _______ _____ _____    ______ ____

>  <TORSDO>
F 10

>  <minimizedAffinity>
-8.270537248015291

$$$$
ZINC36575365
 OpenBabel10211216183D

 34 35  0  0  1  0  0  0  0  0999 V2000
   48.8190   50.5260   16.4710 N   0  0  0  0  0  0  0  0  0  0  0  0
   48.6290   51.6110   17.2480 C   0  0  0  0  0  0  0  0  0  0  0  0
   48.4560   51.4800   18.4410 O   0  0  0  0  0  0  0  0  0  0  0  0
   49.0260   50.6840   15.0300 C   0  0  0  0  0  0  0  0  0  0  0  0
   51.2860   49.7710   14.4760 C   0  0  0  0  0  0  0  0  0  0  0  0
   49.7850   49.4710   14.4870 C   0  0  0  0  0  0  0  0  0  0  0  0
   48.6300   52.9870   16.6330 C   0  0  0  0  0  0  0  0  0  0  0  0
   48.4620   53.9920   17.6860 N   0  0  0  0  0  0  0  0  0  0  0  0
   47.5820   54.3570   17.8730 H   0  0  0  0  0  0  0  0  0  0  0  0
   49.5300   54.4120   18.3940 C   0  0  0  0  0  0  0  0  0  0  0  0
   50.6310   53.9550   18.1590 O   0  0  0  0  0  0  0  0  0  0  0  0
   49.3600   55.4260   19.4560 C   0  0  0  0  0  0  0  0  0  0  0  0
   48.2040   56.2080   19.4990 C   0  0  0  0  0  0  0  0  0  0  0  0
   48.0530   57.1540   20.4930 C   0  0  0  0  0  0  0  0  0  0  0  0
   49.0420   57.3260   21.4450 C   0  0  0  0  0  0  0  0  0  0  0  0
   50.1900   56.5540   21.4060 C   0  0  0  0  0  0  0  0  0  0  0  0
   50.3510   55.6010   20.4220 C   0  0  0  0  0  0  0  0  0  0  0  0
   48.8170   49.1880   17.0690 C   0  0  2  0  0  0  0  0  0  0  0  0
   47.4000   48.6860   17.1720 C   0  0  0  0  0  0  0  0  0  0  0  0
   46.3700   49.5690   17.4350 C   0  0  0  0  0  0  0  0  0  0  0  0
   45.0710   49.1100   17.5310 C   0  0  0  0  0  0  0  0  0  0  0  0
   44.7960   47.7640   17.3630 C   0  0  0  0  0  0  0  0  0  0  0  0
   45.8220   46.8760   17.1010 C   0  0  0  0  0  0  0  0  0  0  0  0
   47.1270   47.3370   16.9990 C   0  0  0  0  0  0  0  0  0  0  0  0
   48.1360   46.4660   16.7350 O   0  0  0  0  0  0  0  0  0  0  0  0
   47.9720   45.8910   15.9750 H   0  0  0  0  0  0  0  0  0  0  0  0
   49.4290   49.2520   18.4440 C   0  0  0  0  0  0  0  0  0  0  0  0
   50.6770   49.7360   18.6040 N   0  0  0  0  0  0  0  0  0  0  0  0
   51.1580   50.0980   17.8430 H   0  0  0  0  0  0  0  0  0  0  0  0
   48.8000   48.8680   19.4070 O   0  0  0  0  0  0  0  0  0  0  0  0
   51.3060   49.7160   19.9270 C   0  0  0  0  0  0  0  0  0  0  0  0
   50.9730   51.0110   20.6690 C   0  0  0  0  0  0  0  0  0  0  0  0
   52.8230   49.5940   19.7680 C   0  0  0  0  0  0  0  0  0  0  0  0
   50.7790   48.5220   20.7240 C   0  0  0  0  0  0  0  0  0  0  0  0
  1  2  1  0  0  0  0
  2  3  2  0  0  0  0
  4  1  1  0  0  0  0
  5  6  1  0  0  0  0
  6  4  1  0  0  0  0
  7  2  1  0  0  0  0
  7  8  1  0  0  0  0
  8  9  1  0  0  0  0
  8 10  1  0  0  0  0
 10 12  1  0  0  0  0
 11 10  2  0  0  0  0
 12 13  2  0  0  0  0
 12 17  1  0  0  0  0
 13 14  1  0  0  0  0
 14 15  2  0  0  0  0
 16 15  1  0  0  0  0
 17 16  2  0  0  0  0
 18  1  1  1  0  0  0
 18 19  1  0  0  0  0
 18 27  1  0  0  0  0
 19 20  2  0  0  0  0
 20 21  1  0  0  0  0
 22 21  2  0  0  0  0
 23 22  1  0  0  0  0
 24 23  2  0  0  0  0
 24 19  1  0  0  0  0
 25 24  1  0  0  0  0
 26 25  1  0  0  0  0
 27 28  1  0  0  0  0
 27 30  2  0  0  0  0
 28 31  1  0  0  0  0
 29 28  1  0  0  0  0
 31 32  1  0  0  0  0
 31 34  1  0  0  0  0
 33 31  1  0  0  0  0
M  END
>  <MODEL>
3

>  <REMARK>
  Name = ZINC36575365
                            x       y       z     vdW  Elec       q    Type
                         _______ _______ _______ _____ _____    ______ ____

>  <TORSDO>
F 10

>  <minimizedAffinity>
-8.1382518194273192

$$$$
ZINC36575365
 OpenBabel10211216183D

 34 35  0  0  1  0  0  0  0  0999 V2000
   49.5660   50.1310   17.2900 N   0  0  0  0  0  0  0  0  0  0  0  0
   49.5020   49.6400   16.0370 C   0  0  0  0  0  0  0  0  0  0  0  0
   50.0850   50.2030   15.1340 O   0  0  0  0  0  0  0  0  0  0  0  0
   48.8610   49.4520   18.3800 C   0  0  0  0  0  0  0  0  0  0  0  0
   46.6820   48.3000   18.7900 C   0  0  0  0  0  0  0  0  0  0  0  0
   47.3540   49.5020   18.1230 C   0  0  0  0  0  0  0  0  0  0  0  0
   48.7060   48.3910   15.7560 C   0  0  0  0  0  0  0  0  0  0  0  0
   47.7410   48.6580   14.6870 N   0  0  0  0  0  0  0  0  0  0  0  0
   47.9220   49.3500   14.0310 H   0  0  0  0  0  0  0  0  0  0  0  0
   46.5990   47.9440   14.6160 C   0  0  0  0  0  0  0  0  0  0  0  0
   46.3720   47.0780   15.4380 O   0  0  0  0  0  0  0  0  0  0  0  0
   45.6250   48.2140   13.5370 C   0  0  0  0  0  0  0  0  0  0  0  0
   44.2700   47.9400   13.7330 C   0  0  0  0  0  0  0  0  0  0  0  0
   43.3660   48.1940   12.7210 C   0  0  0  0  0  0  0  0  0  0  0  0
   43.8000   48.7200   11.5170 C   0  0  0  0  0  0  0  0  0  0  0  0
   45.1410   48.9920   11.3170 C   0  0  0  0  0  0  0  0  0  0  0  0
   46.0550   48.7490   12.3220 C   0  0  0  0  0  0  0  0  0  0  0  0
   50.3390   51.3450   17.5630 C   0  0  2  0  0  0  0  0  0  0  0  0
   51.0540   51.2000   18.8820 C   0  0  0  0  0  0  0  0  0  0  0  0
   50.4620   51.6570   20.0440 C   0  0  0  0  0  0  0  0  0  0  0  0
   51.1180   51.5250   21.2530 C   0  0  0  0  0  0  0  0  0  0  0  0
   52.3670   50.9340   21.3040 C   0  0  0  0  0  0  0  0  0  0  0  0
   52.9640   50.4750   20.1460 C   0  0  0  0  0  0  0  0  0  0  0  0
   52.3050   50.6020   18.9310 C   0  0  0  0  0  0  0  0  0  0  0  0
   52.8880   50.1460   17.7900 O   0  0  0  0  0  0  0  0  0  0  0  0
   53.4040   49.3370   17.9090 H   0  0  0  0  0  0  0  0  0  0  0  0
   49.4090   52.5300   17.6230 C   0  0  0  0  0  0  0  0  0  0  0  0
   49.8490   53.7070   18.1110 N   0  0  0  0  0  0  0  0  0  0  0  0
   50.7790   53.8090   18.3670 H   0  0  0  0  0  0  0  0  0  0  0  0
   48.2660   52.4240   17.2340 O   0  0  0  0  0  0  0  0  0  0  0  0
   48.9230   54.8320   18.2530 C   0  0  0  0  0  0  0  0  0  0  0  0
   48.2000   55.0690   16.9260 C   0  0  0  0  0  0  0  0  0  0  0  0
   49.7040   56.0900   18.6390 C   0  0  0  0  0  0  0  0  0  0  0  0
   47.8970   54.5150   19.3420 C   0  0  0  0  0  0  0  0  0  0  0  0
  1  4  1  0  0  0  0
  2  1  1  0  0  0  0
  3  2  2  0  0  0  0
  6  4  1  0  0  0  0
  6  5  1  0  0  0  0
  7  2  1  0  0  0  0
  8  7  1  0  0  0  0
  9  8  1  0  0  0  0
 10  8  1  0  0  0  0
 10 11  2  0  0  0  0
 12 13  1  0  0  0  0
 12 10  1  0  0  0  0
 14 13  2  0  0  0  0
 15 14  1  0  0  0  0
 16 15  2  0  0  0  0
 16 17  1  0  0  0  0
 17 12  2  0  0  0  0
 18  1  1  1  0  0  0
 18 27  1  0  0  0  0
 18 19  1  0  0  0  0
 19 24  2  0  0  0  0
 19 20  1  0  0  0  0
 20 21  2  0  0  0  0
 21 22  1  0  0  0  0
 23 22  2  0  0  0  0
 24 23  1  0  0  0  0
 25 26  1  0  0  0  0
 25 24  1  0  0  0  0
 27 28  1  0  0  0  0
 28 31  1  0  0  0  0
 28 29  1  0  0  0  0
 30 27  2  0  0  0  0
 31 33  1  0  0  0  0
 31 34  1  0  0  0  0
 32 31  1  0  0  0  0
M  END
>  <MODEL>
4

>  <REMARK>
  Name = ZINC36575365
                            x       y       z     vdW  Elec       q    Type
                         _______ _______ _______ _____ _____    ______ ____

>  <TORSDO>
F 10

>  <minimizedAffinity>
-8.0313090087015748

$$$$
ZINC36575365
 OpenBabel10211216183D

 34 35  0  0  1  0  0  0  0  0999 V2000
   50.0840   54.4390   18.6120 N   0  0  0  0  0  0  0  0  0  0  0  0
   49.7170   55.6780   18.2270 C   0  0  0  0  0  0  0  0  0  0  0  0
   50.5330   56.5760   18.2130 O   0  0  0  0  0  0  0  0  0  0  0  0
   49.1000   53.3560   18.6300 C   0  0  0  0  0  0  0  0  0  0  0  0
   48.8400   51.2010   17.3900 C   0  0  0  0  0  0  0  0  0  0  0  0
   49.0220   52.7130   17.2440 C   0  0  0  0  0  0  0  0  0  0  0  0
   48.2930   55.9470   17.8150 C   0  0  0  0  0  0  0  0  0  0  0  0
   47.9000   57.2860   18.2630 N   0  0  0  0  0  0  0  0  0  0  0  0
   48.0630   57.5590   19.1790 H   0  0  0  0  0  0  0  0  0  0  0  0
   47.3100   58.1380   17.4010 C   0  0  0  0  0  0  0  0  0  0  0  0
   47.1060   57.7960   16.2520 O   0  0  0  0  0  0  0  0  0  0  0  0
   46.9140   59.4890   17.8520 C   0  0  0  0  0  0  0  0  0  0  0  0
   47.4000   59.9950   19.0590 C   0  0  0  0  0  0  0  0  0  0  0  0
   47.0250   61.2570   19.4750 C   0  0  0  0  0  0  0  0  0  0  0  0
   46.1720   62.0200   18.6970 C   0  0  0  0  0  0  0  0  0  0  0  0
   45.6870   61.5230   17.5000 C   0  0  0  0  0  0  0  0  0  0  0  0
   46.0580   60.2660   17.0700 C   0  0  0  0  0  0  0  0  0  0  0  0
   51.4700   54.1780   19.0130 C   0  0  2  0  0  0  0  0  0  0  0  0
   51.6080   52.7360   19.4290 C   0  0  0  0  0  0  0  0  0  0  0  0
   50.9980   52.2880   20.5850 C   0  0  0  0  0  0  0  0  0  0  0  0
   51.1250   50.9660   20.9680 C   0  0  0  0  0  0  0  0  0  0  0  0
   51.8620   50.0870   20.1950 C   0  0  0  0  0  0  0  0  0  0  0  0
   52.4750   50.5300   19.0380 C   0  0  0  0  0  0  0  0  0  0  0  0
   52.3440   51.8560   18.6490 C   0  0  0  0  0  0  0  0  0  0  0  0
   52.9400   52.2910   17.5080 O   0  0  0  0  0  0  0  0  0  0  0  0
   53.0160   53.2530   17.4460 H   0  0  0  0  0  0  0  0  0  0  0  0
   51.8340   55.0720   20.1690 C   0  0  0  0  0  0  0  0  0  0  0  0
   50.8680   55.7110   20.8570 N   0  0  0  0  0  0  0  0  0  0  0  0
   49.9350   55.5500   20.6470 H   0  0  0  0  0  0  0  0  0  0  0  0
   52.9970   55.2160   20.4810 O   0  0  0  0  0  0  0  0  0  0  0  0
   51.2260   56.6490   21.9240 C   0  0  0  0  0  0  0  0  0  0  0  0
   50.0110   57.5070   22.2790 C   0  0  0  0  0  0  0  0  0  0  0  0
   52.3670   57.5510   21.4470 C   0  0  0  0  0  0  0  0  0  0  0  0
   51.6770   55.8680   23.1600 C   0  0  0  0  0  0  0  0  0  0  0  0
  1  4  1  0  0  0  0
  2  1  1  0  0  0  0
  3  2  2  0  0  0  0
  6  5  1  0  0  0  0
  6  4  1  0  0  0  0
  7  2  1  0  0  0  0
  7  8  1  0  0  0  0
  8  9  1  0  0  0  0
 10 12  1  0  0  0  0
 10  8  1  0  0  0  0
 11 10  2  0  0  0  0
 12 13  2  0  0  0  0
 13 14  1  0  0  0  0
 15 14  2  0  0  0  0
 16 15  1  0  0  0  0
 17 16  2  0  0  0  0
 17 12  1  0  0  0  0
 18  1  1  1  0  0  0
 18 19  1  0  0  0  0
 18 27  1  0  0  0  0
 19 20  2  0  0  0  0
 20 21  1  0  0  0  0
 22 21  2  0  0  0  0
 23 22  1  0  0  0  0
 24 23  2  0  0  0  0
 24 19  1  0  0  0  0
 25 24  1  0  0  0  0
 26 25  1  0  0  0  0
 27 30  2  0  0  0  0
 27 28  1  0  0  0  0
 28 31  1  0  0  0  0
 29 28  1  0  0  0  0
 31 32  1  0  0  0  0
 31 34  1  0  0  0  0
 33 31  1  0  0  0  0
M  END
>  <MODEL>
5

>  <REMARK>
  Name = ZINC36575365
                            x       y       z     vdW  Elec       q    Type
                         _______ _______ _______ _____ _____    ______ ____

>  <TORSDO>
F 10

>  <minimizedAffinity>
-7.7436995091144478

$$$$
ZINC36575365
 OpenBabel10211216183D

 34 35  0  0  1  0  0  0  0  0999 V2000
   45.9770   61.3120   18.1940 N   0  0  0  0  0  0  0  0  0  0  0  0
   46.8280   60.2870   18.4040 C   0  0  0  0  0  0  0  0  0  0  0  0
   47.4520   59.8170   17.4760 O   0  0  0  0  0  0  0  0  0  0  0  0
   45.2220   61.8780   19.3140 C   0  0  0  0  0  0  0  0  0  0  0  0
   42.7680   62.2700   19.5720 C   0  0  0  0  0  0  0  0  0  0  0  0
   43.8510   61.2040   19.3990 C   0  0  0  0  0  0  0  0  0  0  0  0
   47.0020   59.7240   19.7910 C   0  0  0  0  0  0  0  0  0  0  0  0
   47.6770   58.4270   19.7100 N   0  0  0  0  0  0  0  0  0  0  0  0
   47.6380   57.9090   18.8910 H   0  0  0  0  0  0  0  0  0  0  0  0
   48.3520   57.9510   20.7760 C   0  0  0  0  0  0  0  0  0  0  0  0
   48.4010   58.6000   21.8030 O   0  0  0  0  0  0  0  0  0  0  0  0
   49.0340   56.6420   20.6950 C   0  0  0  0  0  0  0  0  0  0  0  0
   48.5030   55.6240   19.9000 C   0  0  0  0  0  0  0  0  0  0  0  0
   49.1440   54.4040   19.8300 C   0  0  0  0  0  0  0  0  0  0  0  0
   50.3110   54.1890   20.5420 C   0  0  0  0  0  0  0  0  0  0  0  0
   50.8410   55.1940   21.3320 C   0  0  0  0  0  0  0  0  0  0  0  0
   50.2130   56.4200   21.4070 C   0  0  0  0  0  0  0  0  0  0  0  0
   45.8080   61.8580   16.8450 C   0  0  2  0  0  0  0  0  0  0  0  0
   45.7230   63.3610   16.9190 C   0  0  0  0  0  0  0  0  0  0  0  0
   44.4900   63.9820   16.9920 C   0  0  0  0  0  0  0  0  0  0  0  0
   44.4120   65.3600   17.0600 C   0  0  0  0  0  0  0  0  0  0  0  0
   45.5670   66.1220   17.0540 C   0  0  0  0  0  0  0  0  0  0  0  0
   46.8020   65.5070   16.9810 C   0  0  0  0  0  0  0  0  0  0  0  0
   46.8830   64.1220   16.9190 C   0  0  0  0  0  0  0  0  0  0  0  0
   48.0970   63.5150   16.8530 O   0  0  0  0  0  0  0  0  0  0  0  0
   48.2620   62.8870   17.5690 H   0  0  0  0  0  0  0  0  0  0  0  0
   44.5400   61.3130   16.2390 C   0  0  0  0  0  0  0  0  0  0  0  0
   44.4010   59.9860   16.0500 N   0  0  0  0  0  0  0  0  0  0  0  0
   45.0910   59.3770   16.3580 H   0  0  0  0  0  0  0  0  0  0  0  0
   43.6470   62.0680   15.9200 O   0  0  0  0  0  0  0  0  0  0  0  0
   43.2080   59.4630   15.3800 C   0  0  0  0  0  0  0  0  0  0  0  0
   42.9880   60.2170   14.0680 C   0  0  0  0  0  0  0  0  0  0  0  0
   41.9900   59.6500   16.2870 C   0  0  0  0  0  0  0  0  0  0  0  0
   43.4000   57.9740   15.0860 C   0  0  0  0  0  0  0  0  0  0  0  0
  1  2  1  0  0  0  0
  1  4  1  0  0  0  0
  2  7  1  0  0  0  0
  3  2  2  0  0  0  0
  4  6  1  0  0  0  0
  6  5  1  0  0  0  0
  8  7  1  0  0  0  0
  8 10  1  0  0  0  0
  9  8  1  0  0  0  0
 10 11  2  0  0  0  0
 12 10  1  0  0  0  0
 12 17  2  0  0  0  0
 13 12  1  0  0  0  0
 14 13  2  0  0  0  0
 14 15  1  0  0  0  0
 15 16  2  0  0  0  0
 16 17  1  0  0  0  0
 18 27  1  1  0  0  0
 18 19  1  0  0  0  0
 18  1  1  0  0  0  0
 19 20  1  0  0  0  0
 20 21  2  0  0  0  0
 22 21  1  0  0  0  0
 23 22  2  0  0  0  0
 24 19  2  0  0  0  0
 24 23  1  0  0  0  0
 25 24  1  0  0  0  0
 25 26  1  0  0  0  0
 28 27  1  0  0  0  0
 28 29  1  0  0  0  0
 30 27  2  0  0  0  0
 31 28  1  0  0  0  0
 31 33  1  0  0  0  0
 32 31  1  0  0  0  0
 34 31  1  0  0  0  0
M  END
>  <MODEL>
6

>  <REMARK>
  Name = ZINC36575365
                            x       y       z     vdW  Elec       q    Type
                         _______ _______ _______ _____ _____    ______ ____

>  <TORSDO>
F 10

>  <minimizedAffinity>
-7.6406224013118642

$$$$
ZINC36575365
 OpenBabel10211216183D

 34 35  0  0  1  0  0  0  0  0999 V2000
   47.3060   49.3990   15.9150 N   0  0  0  0  0  0  0  0  0  0  0  0
   47.7200   50.5960   16.3760 C   0  0  0  0  0  0  0  0  0  0  0  0
   46.9320   51.3450   16.9140 O   0  0  0  0  0  0  0  0  0  0  0  0
   48.2560   48.4950   15.2640 C   0  0  0  0  0  0  0  0  0  0  0  0
   48.7430   46.3700   16.4870 C   0  0  0  0  0  0  0  0  0  0  0  0
   49.1440   47.8380   16.3230 C   0  0  0  0  0  0  0  0  0  0  0  0
   49.1630   51.0040   16.2220 C   0  0  0  0  0  0  0  0  0  0  0  0
   49.5590   51.8360   17.3610 N   0  0  0  0  0  0  0  0  0  0  0  0
   49.4130   52.7940   17.3360 H   0  0  0  0  0  0  0  0  0  0  0  0
   50.1310   51.2690   18.4430 C   0  0  0  0  0  0  0  0  0  0  0  0
   50.3150   50.0680   18.4730 O   0  0  0  0  0  0  0  0  0  0  0  0
   50.5310   52.1080   19.5920 C   0  0  0  0  0  0  0  0  0  0  0  0
   50.2050   53.4660   19.6150 C   0  0  0  0  0  0  0  0  0  0  0  0
   50.5830   54.2440   20.6910 C   0  0  0  0  0  0  0  0  0  0  0  0
   51.2810   53.6810   21.7450 C   0  0  0  0  0  0  0  0  0  0  0  0
   51.6070   52.3360   21.7260 C   0  0  0  0  0  0  0  0  0  0  0  0
   51.2310   51.5460   20.6610 C   0  0  0  0  0  0  0  0  0  0  0  0
   45.9030   49.0030   16.0640 C   0  0  2  0  0  0  0  0  0  0  0  0
   45.7010   48.3710   17.4170 C   0  0  0  0  0  0  0  0  0  0  0  0
   46.6970   48.4460   18.3720 C   0  0  0  0  0  0  0  0  0  0  0  0
   46.5120   47.8660   19.6120 C   0  0  0  0  0  0  0  0  0  0  0  0
   45.3300   47.2090   19.9030 C   0  0  0  0  0  0  0  0  0  0  0  0
   44.3310   47.1300   18.9520 C   0  0  0  0  0  0  0  0  0  0  0  0
   44.5120   47.7170   17.7070 C   0  0  0  0  0  0  0  0  0  0  0  0
   43.5280   47.6460   16.7730 O   0  0  0  0  0  0  0  0  0  0  0  0
   43.8510   47.6260   15.8620 H   0  0  0  0  0  0  0  0  0  0  0  0
   45.5440   48.0110   14.9880 C   0  0  0  0  0  0  0  0  0  0  0  0
   44.8230   48.4070   13.9200 N   0  0  0  0  0  0  0  0  0  0  0  0
   44.5850   49.3420   13.8150 H   0  0  0  0  0  0  0  0  0  0  0  0
   45.9040   46.8570   15.0820 O   0  0  0  0  0  0  0  0  0  0  0  0
   44.3990   47.4260   12.9190 C   0  0  0  0  0  0  0  0  0  0  0  0
   43.8140   46.2000   13.6210 C   0  0  0  0  0  0  0  0  0  0  0  0
   45.6040   47.0040   12.0760 C   0  0  0  0  0  0  0  0  0  0  0  0
   43.3360   48.0500   12.0120 C   0  0  0  0  0  0  0  0  0  0  0  0
  1 18  1  0  0  0  0
  1  2  1  0  0  0  0
  2  3  2  0  0  0  0
  4  1  1  0  0  0  0
  4  6  1  0  0  0  0
  6  5  1  0  0  0  0
  7  2  1  0  0  0  0
  7  8  1  0  0  0  0
  8 10  1  0  0  0  0
  9  8  1  0  0  0  0
 10 11  2  0  0  0  0
 10 12  1  0  0  0  0
 12 13  2  0  0  0  0
 12 17  1  0  0  0  0
 13 14  1  0  0  0  0
 14 15  2  0  0  0  0
 16 15  1  0  0  0  0
 17 16  2  0  0  0  0
 18 27  1  1  0  0  0
 18 19  1  0  0  0  0
 19 24  2  0  0  0  0
 19 20  1  0  0  0  0
 20 21  2  0  0  0  0
 21 22  1  0  0  0  0
 23 22  2  0  0  0  0
 24 23  1  0  0  0  0
 25 24  1  0  0  0  0
 26 25  1  0  0  0  0
 27 30  2  0  0  0  0
 28 27  1  0  0  0  0
 29 28  1  0  0  0  0
 31 32  1  0  0  0  0
 31 28  1  0  0  0  0
 33 31  1  0  0  0  0
 34 31  1  0  0  0  0
M  END
>  <MODEL>
7

>  <REMARK>
  Name = ZINC36575365
                            x       y       z     vdW  Elec       q    Type
                         _______ _______ _______ _____ _____    ______ ____

>  <TORSDO>
F 10

>  <minimizedAffinity>
-7.3780432686388879

$$$$
ZINC36575365
 OpenBabel10211216183D

 34 35  0  0  1  0  0  0  0  0999 V2000
   45.4950   47.9350   15.6630 N   0  0  0  0  0  0  0  0  0  0  0  0
   46.4100   48.9040   15.8640 C   0  0  0  0  0  0  0  0  0  0  0  0
   47.2220   49.1610   15.0010 O   0  0  0  0  0  0  0  0  0  0  0  0
   44.5160   47.6230   16.7050 C   0  0  0  0  0  0  0  0  0  0  0  0
   44.4180   47.3040   19.1820 C   0  0  0  0  0  0  0  0  0  0  0  0
   45.2320   47.0240   17.9170 C   0  0  0  0  0  0  0  0  0  0  0  0
   46.4240   49.6670   17.1640 C   0  0  0  0  0  0  0  0  0  0  0  0
   47.7010   49.4440   17.8470 N   0  0  0  0  0  0  0  0  0  0  0  0
   47.8810   48.5920   18.2740 H   0  0  0  0  0  0  0  0  0  0  0  0
   48.6260   50.4250   17.8840 C   0  0  0  0  0  0  0  0  0  0  0  0
   48.4000   51.4930   17.3500 O   0  0  0  0  0  0  0  0  0  0  0  0
   49.9140   50.2000   18.5740 C   0  0  0  0  0  0  0  0  0  0  0  0
   50.0070   49.2470   19.5900 C   0  0  0  0  0  0  0  0  0  0  0  0
   51.2130   49.0420   20.2300 C   0  0  0  0  0  0  0  0  0  0  0  0
   52.3270   49.7780   19.8650 C   0  0  0  0  0  0  0  0  0  0  0  0
   52.2400   50.7250   18.8600 C   0  0  0  0  0  0  0  0  0  0  0  0
   51.0430   50.9350   18.2080 C   0  0  0  0  0  0  0  0  0  0  0  0
   45.4820   47.1920   14.3990 C   0  0  2  0  0  0  0  0  0  0  0  0
   44.4370   47.7760   13.4840 C   0  0  0  0  0  0  0  0  0  0  0  0
   43.0960   47.5450   13.7270 C   0  0  0  0  0  0  0  0  0  0  0  0
   42.1380   48.0800   12.8880 C   0  0  0  0  0  0  0  0  0  0  0  0
   42.5170   48.8490   11.8030 C   0  0  0  0  0  0  0  0  0  0  0  0
   43.8550   49.0840   11.5550 C   0  0  0  0  0  0  0  0  0  0  0  0
   44.8200   48.5520   12.3990 C   0  0  0  0  0  0  0  0  0  0  0  0
   46.1370   48.7860   12.1600 O   0  0  0  0  0  0  0  0  0  0  0  0
   46.7240   48.0860   12.4730 H   0  0  0  0  0  0  0  0  0  0  0  0
   45.1590   45.7450   14.6720 C   0  0  0  0  0  0  0  0  0  0  0  0
   44.2250   45.1140   13.9330 N   0  0  0  0  0  0  0  0  0  0  0  0
   43.8030   45.5710   13.1890 H   0  0  0  0  0  0  0  0  0  0  0  0
   45.7390   45.1500   15.5540 O   0  0  0  0  0  0  0  0  0  0  0  0
   43.8470   43.7350   14.2540 C   0  0  0  0  0  0  0  0  0  0  0  0
   43.2460   43.6850   15.6600 C   0  0  0  0  0  0  0  0  0  0  0  0
   45.0880   42.8410   14.1980 C   0  0  0  0  0  0  0  0  0  0  0  0
   42.8150   43.2400   13.2400 C   0  0  0  0  0  0  0  0  0  0  0  0
  1  2  1  0  0  0  0
  1  4  1  0  0  0  0
  2  7  1  0  0  0  0
  3  2  2  0  0  0  0
  4  6  1  0  0  0  0
  6  5  1  0  0  0  0
  7  8  1  0  0  0  0
  8 10  1  0  0  0  0
  8  9  1  0  0  0  0
 10 12  1  0  0  0  0
 11 10  2  0  0  0  0
 12 13  1  0  0  0  0
 13 14  2  0  0  0  0
 15 14  1  0  0  0  0
 16 15  2  0  0  0  0
 17 12  2  0  0  0  0
 17 16  1  0  0  0  0
 18 19  1  1  0  0  0
 18 27  1  0  0  0  0
 18  1  1  0  0  0  0
 19 20  1  0  0  0  0
 21 20  2  0  0  0  0
 22 21  1  0  0  0  0
 23 22  2  0  0  0  0
 23 24  1  0  0  0  0
 24 19  2  0  0  0  0
 25 24  1  0  0  0  0
 25 26  1  0  0  0  0
 27 30  2  0  0  0  0
 28 31  1  0  0  0  0
 28 27  1  0  0  0  0
 29 28  1  0  0  0  0
 31 32  1  0  0  0  0
 33 31  1  0  0  0  0
 34 31  1  0  0  0  0
M  END
>  <MODEL>
8

>  <REMARK>
  Name = ZINC36575365
                            x       y       z     vdW  Elec       q    Type
                         _______ _______ _______ _____ _____    ______ ____

>  <TORSDO>
F 10

>  <minimizedAffinity>
-7.1052929383657606

$$$$
ZINC36575365
 OpenBabel10211216183D

 34 35  0  0  1  0  0  0  0  0999 V2000
   49.3230   54.1540   19.5920 N   0  0  0  0  0  0  0  0  0  0  0  0
   49.6570   53.6820   18.3740 C   0  0  0  0  0  0  0  0  0  0  0  0
   50.7300   53.1410   18.2070 O   0  0  0  0  0  0  0  0  0  0  0  0
   48.0280   54.8080   19.7940 C   0  0  0  0  0  0  0  0  0  0  0  0
   48.2390   57.1270   18.8860 C   0  0  0  0  0  0  0  0  0  0  0  0
   48.2500   56.2780   20.1580 C   0  0  0  0  0  0  0  0  0  0  0  0
   48.6980   53.8290   17.2200 C   0  0  0  0  0  0  0  0  0  0  0  0
   47.7940   52.6770   17.1880 N   0  0  0  0  0  0  0  0  0  0  0  0
   46.9300   52.7260   17.6270 H   0  0  0  0  0  0  0  0  0  0  0  0
   48.1630   51.5480   16.5500 C   0  0  0  0  0  0  0  0  0  0  0  0
   49.2450   51.4870   16.0000 O   0  0  0  0  0  0  0  0  0  0  0  0
   47.2510   50.3860   16.5170 C   0  0  0  0  0  0  0  0  0  0  0  0
   46.2240   50.2750   17.4570 C   0  0  0  0  0  0  0  0  0  0  0  0
   45.3760   49.1860   17.4220 C   0  0  0  0  0  0  0  0  0  0  0  0
   45.5410   48.2080   16.4560 C   0  0  0  0  0  0  0  0  0  0  0  0
   46.5570   48.3130   15.5230 C   0  0  0  0  0  0  0  0  0  0  0  0
   47.4070   49.3980   15.5440 C   0  0  0  0  0  0  0  0  0  0  0  0
   50.2550   54.0120   20.7130 C   0  0  2  0  0  0  0  0  0  0  0  0
   51.2840   55.1120   20.6530 C   0  0  0  0  0  0  0  0  0  0  0  0
   51.6620   55.6390   19.4330 C   0  0  0  0  0  0  0  0  0  0  0  0
   52.6060   56.6470   19.3780 C   0  0  0  0  0  0  0  0  0  0  0  0
   53.1750   57.1310   20.5420 C   0  0  0  0  0  0  0  0  0  0  0  0
   52.8010   56.6070   21.7640 C   0  0  0  0  0  0  0  0  0  0  0  0
   51.8490   55.5980   21.8230 C   0  0  0  0  0  0  0  0  0  0  0  0
   51.4750   55.0860   23.0250 O   0  0  0  0  0  0  0  0  0  0  0  0
   52.1530   54.5440   23.4500 H   0  0  0  0  0  0  0  0  0  0  0  0
   50.9440   52.6740   20.6270 C   0  0  0  0  0  0  0  0  0  0  0  0
   50.2940   51.6150   20.1060 N   0  0  0  0  0  0  0  0  0  0  0  0
   49.4060   51.7270   19.7310 H   0  0  0  0  0  0  0  0  0  0  0  0
   52.0810   52.5510   21.0280 O   0  0  0  0  0  0  0  0  0  0  0  0
   50.9290   50.2950   20.1030 C   0  0  0  0  0  0  0  0  0  0  0  0
   50.2180   49.3880   19.0970 C   0  0  0  0  0  0  0  0  0  0  0  0
   50.8330   49.6810   21.5010 C   0  0  0  0  0  0  0  0  0  0  0  0
   52.4000   50.4380   19.7090 C   0  0  0  0  0  0  0  0  0  0  0  0
  1  4  1  0  0  0  0
  2  1  1  0  0  0  0
  3  2  2  0  0  0  0
  4  6  1  0  0  0  0
  5  6  1  0  0  0  0
  7  2  1  0  0  0  0
  8  7  1  0  0  0  0
  8  9  1  0  0  0  0
 10  8  1  0  0  0  0
 11 10  2  0  0  0  0
 12 10  1  0  0  0  0
 12 13  2  0  0  0  0
 14 13  1  0  0  0  0
 15 14  2  0  0  0  0
 16 17  2  0  0  0  0
 16 15  1  0  0  0  0
 17 12  1  0  0  0  0
 18  1  1  6  0  0  0
 19 18  1  0  0  0  0
 19 24  2  0  0  0  0
 20 19  1  0  0  0  0
 21 20  2  0  0  0  0
 21 22  1  0  0  0  0
 22 23  2  0  0  0  0
 23 24  1  0  0  0  0
 24 25  1  0  0  0  0
 25 26  1  0  0  0  0
 27 18  1  0  0  0  0
 27 30  2  0  0  0  0
 28 27  1  0  0  0  0
 29 28  1  0  0  0  0
 31 28  1  0  0  0  0
 31 33  1  0  0  0  0
 32 31  1  0  0  0  0
 34 31  1  0  0  0  0
M  END
>  <MODEL>
9

>  <REMARK>
  Name = ZINC36575365
                            x       y       z     vdW  Elec       q    Type
                         _______ _______ _______ _____ _____    ______ ____

>  <TORSDO>
F 10

>  <minimizedAffinity>
-7.0116931836911167

$$$$
ZINC14650825
 OpenBabel10211216213D

 32 33  0  0  0  0  0  0  0  0999 V2000
   50.1810   50.3740   18.7360 C   0  0  0  0  0  0  0  0  0  0  0  0
   50.4360   50.2020   20.0490 N   0  0  0  0  0  0  0  0  0  0  0  0
   49.7140   49.9870   20.6590 H   0  0  0  0  0  0  0  0  0  0  0  0
   51.0850   50.6450   17.9710 O   0  0  0  0  0  0  0  0  0  0  0  0
   48.2590   51.2140   17.3870 C   0  0  0  0  0  0  0  0  0  0  0  0
   46.9650   51.0700   16.9110 C   0  0  0  0  0  0  0  0  0  0  0  0
   46.2120   49.9720   17.2750 C   0  0  0  0  0  0  0  0  0  0  0  0
   46.7430   49.0030   18.1110 C   0  0  0  0  0  0  0  0  0  0  0  0
   45.7000   47.5040   18.6000 Br  0  0  0  0  0  0  0  0  0  0  0  0
   48.0310   49.1270   18.5890 C   0  0  0  0  0  0  0  0  0  0  0  0
   48.8030   50.2340   18.2290 C   0  0  0  0  0  0  0  0  0  0  0  0
   48.9980   52.2970   17.0340 O   0  0  0  0  0  0  0  0  0  0  0  0
   48.4330   53.5820   17.3010 C   0  0  0  0  0  0  0  0  0  0  0  0
   48.7780   54.0030   18.7300 C   0  0  0  0  0  0  0  0  0  0  0  0
   48.4630   56.1500   17.4910 C   0  0  0  0  0  0  0  0  0  0  0  0
   49.0010   55.5170   18.7760 C   0  0  0  0  0  0  0  0  0  0  0  0
   48.2640   56.1050   19.9810 C   0  0  0  0  0  0  0  0  0  0  0  0
   51.6950   50.3310   20.5120 C   0  0  0  0  0  0  0  0  0  0  0  0
   52.9710   49.4530   19.7830 S   0  0  0  0  0  0  0  0  0  0  0  0
   51.9500   51.1520   21.5510 N   0  0  0  0  0  0  0  0  0  0  0  0
   52.1540   50.7800   22.4240 H   0  0  0  0  0  0  0  0  0  0  0  0
   51.9190   52.5400   21.3710 C   0  0  0  0  0  0  0  0  0  0  0  0
   51.4760   53.3640   22.3970 C   0  0  0  0  0  0  0  0  0  0  0  0
   51.4470   54.7320   22.2200 C   0  0  0  0  0  0  0  0  0  0  0  0
   51.8620   55.2850   21.0160 C   0  0  0  0  0  0  0  0  0  0  0  0
   52.3010   54.4620   19.9880 C   0  0  0  0  0  0  0  0  0  0  0  0
   52.3350   53.0930   20.1670 C   0  0  0  0  0  0  0  0  0  0  0  0
   51.8330   56.6740   20.8360 N   0  0  0  0  0  0  0  0  0  0  0  0
   51.1390   57.0780   20.2910 H   0  0  0  0  0  0  0  0  0  0  0  0
   52.7640   57.4500   21.4250 C   0  0  0  0  0  0  0  0  0  0  0  0
   52.7680   58.9380   21.1850 C   0  0  0  0  0  0  0  0  0  0  0  0
   53.6000   56.9510   22.1490 O   0  0  0  0  0  0  0  0  0  0  0  0
  1  2  1  0  0  0  0
  2 18  1  0  0  0  0
  2  3  1  0  0  0  0
  4  1  2  0  0  0  0
  5 11  2  0  0  0  0
  6  7  2  0  0  0  0
  6  5  1  0  0  0  0
  7  8  1  0  0  0  0
  8 10  2  0  0  0  0
  8  9  1  0  0  0  0
 11 10  1  0  0  0  0
 11  1  1  0  0  0  0
 12 13  1  0  0  0  0
 12  5  1  0  0  0  0
 13 14  1  0  0  0  0
 14 16  1  0  0  0  0
 15 16  1  0  0  0  0
 16 17  1  0  0  0  0
 18 20  1  0  0  0  0
 19 18  2  0  0  0  0
 20 21  1  0  0  0  0
 22 20  1  0  0  0  0
 22 23  2  0  0  0  0
 24 23  1  0  0  0  0
 25 24  2  0  0  0  0
 26 27  2  0  0  0  0
 26 25  1  0  0  0  0
 27 22  1  0  0  0  0
 28 25  1  0  0  0  0
 28 30  1  0  0  0  0
 29 28  1  0  0  0  0
 30 32  2  0  0  0  0
 31 30  1  0  0  0  0
M  END
>  <MODEL>
1

>  <REMARK>
  Name = ZINC14650825
                            x       y       z     vdW  Elec       q    Type
                         _______ _______ _______ _____ _____    ______ ____

>  <TORSDO>
F 9

>  <minimizedAffinity>
-9.0232528108779473

$$$$
ZINC14650825
 OpenBabel10211216213D

 32 33  0  0  0  0  0  0  0  0999 V2000
   50.3240   54.3930   19.2600 C   0  0  0  0  0  0  0  0  0  0  0  0
   50.0160   53.3150   20.0080 N   0  0  0  0  0  0  0  0  0  0  0  0
   49.2890   53.3610   20.6490 H   0  0  0  0  0  0  0  0  0  0  0  0
   51.2350   54.3350   18.4570 O   0  0  0  0  0  0  0  0  0  0  0  0
   49.5020   56.2850   20.6600 C   0  0  0  0  0  0  0  0  0  0  0  0
   48.7820   57.4620   20.7950 C   0  0  0  0  0  0  0  0  0  0  0  0
   48.1120   57.9920   19.7100 C   0  0  0  0  0  0  0  0  0  0  0  0
   48.1590   57.3570   18.4780 C   0  0  0  0  0  0  0  0  0  0  0  0
   47.2380   58.0960   17.0010 Br  0  0  0  0  0  0  0  0  0  0  0  0
   48.8760   56.1890   18.3250 C   0  0  0  0  0  0  0  0  0  0  0  0
   49.5570   55.6420   19.4160 C   0  0  0  0  0  0  0  0  0  0  0  0
   50.1550   55.7600   21.7280 O   0  0  0  0  0  0  0  0  0  0  0  0
   51.2130   56.5400   22.2890 C   0  0  0  0  0  0  0  0  0  0  0  0
   52.4880   56.3320   21.4700 C   0  0  0  0  0  0  0  0  0  0  0  0
   52.4660   58.8210   21.6880 C   0  0  0  0  0  0  0  0  0  0  0  0
   52.8830   57.6480   20.7980 C   0  0  0  0  0  0  0  0  0  0  0  0
   54.3980   57.6810   20.5900 C   0  0  0  0  0  0  0  0  0  0  0  0
   50.7180   52.1730   19.8660 C   0  0  0  0  0  0  0  0  0  0  0  0
   51.6570   51.5780   21.1680 S   0  0  0  0  0  0  0  0  0  0  0  0
   50.6830   51.5010   18.6980 N   0  0  0  0  0  0  0  0  0  0  0  0
   51.4890   51.4130   18.1650 H   0  0  0  0  0  0  0  0  0  0  0  0
   49.4840   50.9300   18.2550 C   0  0  0  0  0  0  0  0  0  0  0  0
   48.6880   51.6090   17.3420 C   0  0  0  0  0  0  0  0  0  0  0  0
   47.5060   51.0460   16.9030 C   0  0  0  0  0  0  0  0  0  0  0  0
   47.1140   49.8000   17.3750 C   0  0  0  0  0  0  0  0  0  0  0  0
   47.9070   49.1240   18.2920 C   0  0  0  0  0  0  0  0  0  0  0  0
   49.0920   49.6850   18.7260 C   0  0  0  0  0  0  0  0  0  0  0  0
   45.9150   49.2290   16.9300 N   0  0  0  0  0  0  0  0  0  0  0  0
   45.0970   49.3650   17.4340 H   0  0  0  0  0  0  0  0  0  0  0  0
   45.8960   48.4950   15.8000 C   0  0  0  0  0  0  0  0  0  0  0  0
   44.6190   47.8320   15.3530 C   0  0  0  0  0  0  0  0  0  0  0  0
   46.9080   48.3680   15.1430 O   0  0  0  0  0  0  0  0  0  0  0  0
  1 11  1  0  0  0  0
  1  2  1  0  0  0  0
  2  3  1  0  0  0  0
  4  1  2  0  0  0  0
  5  6  1  0  0  0  0
  5 12  1  0  0  0  0
  7  6  2  0  0  0  0
  8  7  1  0  0  0  0
  9  8  1  0  0  0  0
 10  8  2  0  0  0  0
 10 11  1  0  0  0  0
 11  5  2  0  0  0  0
 12 13  1  0  0  0  0
 14 13  1  0  0  0  0
 16 14  1  0  0  0  0
 16 15  1  0  0  0  0
 17 16  1  0  0  0  0
 18  2  1  0  0  0  0
 18 19  2  0  0  0  0
 20 18  1  0  0  0  0
 21 20  1  0  0  0  0
 22 20  1  0  0  0  0
 22 27  2  0  0  0  0
 23 22  1  0  0  0  0
 24 23  2  0  0  0  0
 24 25  1  0  0  0  0
 25 26  2  0  0  0  0
 26 27  1  0  0  0  0
 28 25  1  0  0  0  0
 28 29  1  0  0  0  0
 30 28  1  0  0  0  0
 31 30  1  0  0  0  0
 32 30  2  0  0  0  0
M  END
>  <MODEL>
2

>  <REMARK>
  Name = ZINC14650825
                            x       y       z     vdW  Elec       q    Type
                         _______ _______ _______ _____ _____    ______ ____

>  <TORSDO>
F 9

>  <minimizedAffinity>
-8.8452661157812766

$$$$
ZINC14650825
 OpenBabel10211216213D

 32 33  0  0  0  0  0  0  0  0999 V2000
   51.8690   53.7850   19.3870 C   0  0  0  0  0  0  0  0  0  0  0  0
   51.3260   52.6010   19.7330 N   0  0  0  0  0  0  0  0  0  0  0  0
   50.7410   52.5420   20.5050 H   0  0  0  0  0  0  0  0  0  0  0  0
   52.6020   53.8590   18.4200 O   0  0  0  0  0  0  0  0  0  0  0  0
   50.2600   55.2660   20.5860 C   0  0  0  0  0  0  0  0  0  0  0  0
   49.9940   56.4000   21.3380 C   0  0  0  0  0  0  0  0  0  0  0  0
   51.0190   57.2600   21.6780 C   0  0  0  0  0  0  0  0  0  0  0  0
   52.3190   56.9960   21.2780 C   0  0  0  0  0  0  0  0  0  0  0  0
   53.7120   58.1830   21.7530 Br  0  0  0  0  0  0  0  0  0  0  0  0
   52.6020   55.8690   20.5350 C   0  0  0  0  0  0  0  0  0  0  0  0
   51.5740   54.9910   20.1820 C   0  0  0  0  0  0  0  0  0  0  0  0
   49.2530   54.4220   20.2450 O   0  0  0  0  0  0  0  0  0  0  0  0
   48.1970   54.9620   19.4470 C   0  0  0  0  0  0  0  0  0  0  0  0
   48.5830   54.8770   17.9690 C   0  0  0  0  0  0  0  0  0  0  0  0
   47.9330   56.3120   16.0290 C   0  0  0  0  0  0  0  0  0  0  0  0
   48.6540   56.2870   17.3790 C   0  0  0  0  0  0  0  0  0  0  0  0
   47.9820   57.2760   18.3330 C   0  0  0  0  0  0  0  0  0  0  0  0
   51.5960   51.4980   19.0070 C   0  0  0  0  0  0  0  0  0  0  0  0
   52.5880   50.2650   19.6590 S   0  0  0  0  0  0  0  0  0  0  0  0
   51.0850   51.3670   17.7660 N   0  0  0  0  0  0  0  0  0  0  0  0
   51.6120   51.6280   16.9950 H   0  0  0  0  0  0  0  0  0  0  0  0
   49.7940   50.8530   17.5910 C   0  0  0  0  0  0  0  0  0  0  0  0
   48.9620   51.3850   16.6160 C   0  0  0  0  0  0  0  0  0  0  0  0
   47.6890   50.8780   16.4420 C   0  0  0  0  0  0  0  0  0  0  0  0
   47.2430   49.8350   17.2430 C   0  0  0  0  0  0  0  0  0  0  0  0
   48.0730   49.3060   18.2220 C   0  0  0  0  0  0  0  0  0  0  0  0
   49.3480   49.8100   18.3920 C   0  0  0  0  0  0  0  0  0  0  0  0
   45.9520   49.3200   17.0670 N   0  0  0  0  0  0  0  0  0  0  0  0
   45.2120   49.6820   17.5800 H   0  0  0  0  0  0  0  0  0  0  0  0
   45.7370   48.3270   16.1820 C   0  0  0  0  0  0  0  0  0  0  0  0
   44.3590   47.7330   16.0350 C   0  0  0  0  0  0  0  0  0  0  0  0
   46.6520   47.9100   15.5040 O   0  0  0  0  0  0  0  0  0  0  0  0
  1  2  1  0  0  0  0
  1 11  1  0  0  0  0
  2  3  1  0  0  0  0
  4  1  2  0  0  0  0
  5  6  2  0  0  0  0
  6  7  1  0  0  0  0
  8  7  2  0  0  0  0
  8  9  1  0  0  0  0
 10  8  1  0  0  0  0
 11 10  2  0  0  0  0
 11  5  1  0  0  0  0
 12  5  1  0  0  0  0
 13 12  1  0  0  0  0
 14 13  1  0  0  0  0
 15 16  1  0  0  0  0
 16 14  1  0  0  0  0
 16 17  1  0  0  0  0
 18 19  2  0  0  0  0
 18  2  1  0  0  0  0
 20 18  1  0  0  0  0
 21 20  1  0  0  0  0
 22 20  1  0  0  0  0
 22 27  2  0  0  0  0
 23 22  1  0  0  0  0
 24 23  2  0  0  0  0
 24 25  1  0  0  0  0
 25 26  2  0  0  0  0
 26 27  1  0  0  0  0
 28 25  1  0  0  0  0
 28 29  1  0  0  0  0
 30 28  1  0  0  0  0
 31 30  1  0  0  0  0
 32 30  2  0  0  0  0
M  END
>  <MODEL>
3

>  <REMARK>
  Name = ZINC14650825
                            x       y       z     vdW  Elec       q    Type
                         _______ _______ _______ _____ _____    ______ ____

>  <TORSDO>
F 9

>  <minimizedAffinity>
-8.7227691660484243

$$$$
ZINC14650825
 OpenBabel10211216213D

 32 33  0  0  0  0  0  0  0  0999 V2000
   50.7320   54.0600   18.9940 C   0  0  0  0  0  0  0  0  0  0  0  0
   49.4220   53.8850   18.7300 N   0  0  0  0  0  0  0  0  0  0  0  0
   48.7550   54.1650   19.3760 H   0  0  0  0  0  0  0  0  0  0  0  0
   51.5680   53.7080   18.1850 O   0  0  0  0  0  0  0  0  0  0  0  0
   51.0890   53.9480   21.4590 C   0  0  0  0  0  0  0  0  0  0  0  0
   51.4900   54.5380   22.6490 C   0  0  0  0  0  0  0  0  0  0  0  0
   51.9390   55.8430   22.6570 C   0  0  0  0  0  0  0  0  0  0  0  0
   51.9990   56.5720   21.4790 C   0  0  0  0  0  0  0  0  0  0  0  0
   52.6170   58.3590   21.5060 Br  0  0  0  0  0  0  0  0  0  0  0  0
   51.6090   55.9990   20.2860 C   0  0  0  0  0  0  0  0  0  0  0  0
   51.1510   54.6790   20.2650 C   0  0  0  0  0  0  0  0  0  0  0  0
   50.6410   52.6670   21.4520 O   0  0  0  0  0  0  0  0  0  0  0  0
   51.6140   51.6390   21.6520 C   0  0  0  0  0  0  0  0  0  0  0  0
   51.0050   50.2840   21.2870 C   0  0  0  0  0  0  0  0  0  0  0  0
   52.0510   50.3170   19.0180 C   0  0  0  0  0  0  0  0  0  0  0  0
   50.7280   50.2390   19.7830 C   0  0  0  0  0  0  0  0  0  0  0  0
   50.0140   48.9310   19.4340 C   0  0  0  0  0  0  0  0  0  0  0  0
   49.0390   53.3180   17.5690 C   0  0  0  0  0  0  0  0  0  0  0  0
   47.9490   54.1370   16.5340 S   0  0  0  0  0  0  0  0  0  0  0  0
   49.5120   52.1040   17.2240 N   0  0  0  0  0  0  0  0  0  0  0  0
   50.4610   51.9150   17.2950 H   0  0  0  0  0  0  0  0  0  0  0  0
   48.6350   51.1150   16.7610 C   0  0  0  0  0  0  0  0  0  0  0  0
   48.8840   50.4740   15.5560 C   0  0  0  0  0  0  0  0  0  0  0  0
   48.0200   49.4980   15.1010 C   0  0  0  0  0  0  0  0  0  0  0  0
   46.9010   49.1590   15.8490 C   0  0  0  0  0  0  0  0  0  0  0  0
   46.6470   49.8040   17.0520 C   0  0  0  0  0  0  0  0  0  0  0  0
   47.5150   50.7760   17.5100 C   0  0  0  0  0  0  0  0  0  0  0  0
   46.0230   48.1690   15.3880 N   0  0  0  0  0  0  0  0  0  0  0  0
   45.3320   48.3950   14.7450 H   0  0  0  0  0  0  0  0  0  0  0  0
   46.1420   46.9030   15.8310 C   0  0  0  0  0  0  0  0  0  0  0  0
   45.1620   45.8500   15.3800 C   0  0  0  0  0  0  0  0  0  0  0  0
   47.0380   46.6090   16.5940 O   0  0  0  0  0  0  0  0  0  0  0  0
  1 11  1  0  0  0  0
  2  1  1  0  0  0  0
  2  3  1  0  0  0  0
  4  1  2  0  0  0  0
  5  6  2  0  0  0  0
  6  7  1  0  0  0  0
  8  9  1  0  0  0  0
  8  7  2  0  0  0  0
 10  8  1  0  0  0  0
 11 10  2  0  0  0  0
 11  5  1  0  0  0  0
 12  5  1  0  0  0  0
 12 13  1  0  0  0  0
 14 13  1  0  0  0  0
 15 16  1  0  0  0  0
 16 14  1  0  0  0  0
 17 16  1  0  0  0  0
 18  2  1  0  0  0  0
 19 18  2  0  0  0  0
 20 21  1  0  0  0  0
 20 18  1  0  0  0  0
 22 20  1  0  0  0  0
 22 27  2  0  0  0  0
 23 22  1  0  0  0  0
 24 23  2  0  0  0  0
 24 25  1  0  0  0  0
 25 26  2  0  0  0  0
 26 27  1  0  0  0  0
 28 30  1  0  0  0  0
 28 25  1  0  0  0  0
 29 28  1  0  0  0  0
 30 32  2  0  0  0  0
 31 30  1  0  0  0  0
M  END
>  <MODEL>
4

>  <REMARK>
  Name = ZINC14650825
                            x       y       z     vdW  Elec       q    Type
                         _______ _______ _______ _____ _____    ______ ____

>  <TORSDO>
F 9

>  <minimizedAffinity>
-8.5411104409378193

$$$$
ZINC14650825
 OpenBabel10211216213D

 32 33  0  0  0  0  0  0  0  0999 V2000
   48.9080   52.7980   18.0460 C   0  0  0  0  0  0  0  0  0  0  0  0
   49.6990   51.7070   18.0040 N   0  0  0  0  0  0  0  0  0  0  0  0
   50.5890   51.7380   18.3880 H   0  0  0  0  0  0  0  0  0  0  0  0
   47.7930   52.7590   17.5640 O   0  0  0  0  0  0  0  0  0  0  0  0
   50.7720   54.2560   18.8300 C   0  0  0  0  0  0  0  0  0  0  0  0
   51.2210   55.4290   19.4190 C   0  0  0  0  0  0  0  0  0  0  0  0
   50.3150   56.3710   19.8630 C   0  0  0  0  0  0  0  0  0  0  0  0
   48.9520   56.1570   19.7190 C   0  0  0  0  0  0  0  0  0  0  0  0
   47.7240   57.4570   20.3310 Br  0  0  0  0  0  0  0  0  0  0  0  0
   48.4890   55.0000   19.1290 C   0  0  0  0  0  0  0  0  0  0  0  0
   49.3960   54.0380   18.6770 C   0  0  0  0  0  0  0  0  0  0  0  0
   51.6620   53.3270   18.3980 O   0  0  0  0  0  0  0  0  0  0  0  0
   52.6920   52.9430   19.3110 C   0  0  0  0  0  0  0  0  0  0  0  0
   52.6310   51.4320   19.5410 C   0  0  0  0  0  0  0  0  0  0  0  0
   51.7990   52.4670   21.6580 C   0  0  0  0  0  0  0  0  0  0  0  0
   52.1930   51.1520   20.9810 C   0  0  0  0  0  0  0  0  0  0  0  0
   50.9950   50.2020   20.9760 C   0  0  0  0  0  0  0  0  0  0  0  0
   49.2540   50.5740   17.4270 C   0  0  0  0  0  0  0  0  0  0  0  0
   49.4210   50.3500   15.7370 S   0  0  0  0  0  0  0  0  0  0  0  0
   48.6750   49.6160   18.1790 N   0  0  0  0  0  0  0  0  0  0  0  0
   49.0540   49.3810   19.0400 H   0  0  0  0  0  0  0  0  0  0  0  0
   47.5270   48.9610   17.7170 C   0  0  0  0  0  0  0  0  0  0  0  0
   47.6000   47.6360   17.3100 C   0  0  0  0  0  0  0  0  0  0  0  0
   46.4680   46.9900   16.8560 C   0  0  0  0  0  0  0  0  0  0  0  0
   45.2560   47.6660   16.8060 C   0  0  0  0  0  0  0  0  0  0  0  0
   45.1840   48.9930   17.2070 C   0  0  0  0  0  0  0  0  0  0  0  0
   46.3150   49.6370   17.6670 C   0  0  0  0  0  0  0  0  0  0  0  0
   44.1070   47.0100   16.3440 N   0  0  0  0  0  0  0  0  0  0  0  0
   43.5510   46.5120   16.9650 H   0  0  0  0  0  0  0  0  0  0  0  0
   43.7710   47.0760   15.0410 C   0  0  0  0  0  0  0  0  0  0  0  0
   42.5670   46.3230   14.5340 C   0  0  0  0  0  0  0  0  0  0  0  0
   44.4360   47.7410   14.2760 O   0  0  0  0  0  0  0  0  0  0  0  0
  1 11  1  0  0  0  0
  2  1  1  0  0  0  0
  2  3  1  0  0  0  0
  4  1  2  0  0  0  0
  5  6  1  0  0  0  0
  6  7  2  0  0  0  0
  8  7  1  0  0  0  0
  8  9  1  0  0  0  0
 10  8  2  0  0  0  0
 11  5  2  0  0  0  0
 11 10  1  0  0  0  0
 12  5  1  0  0  0  0
 12 13  1  0  0  0  0
 13 14  1  0  0  0  0
 14 16  1  0  0  0  0
 16 15  1  0  0  0  0
 17 16  1  0  0  0  0
 18  2  1  0  0  0  0
 18 20  1  0  0  0  0
 19 18  2  0  0  0  0
 20 21  1  0  0  0  0
 22 20  1  0  0  0  0
 23 22  2  0  0  0  0
 24 23  1  0  0  0  0
 25 24  2  0  0  0  0
 25 26  1  0  0  0  0
 26 27  2  0  0  0  0
 27 22  1  0  0  0  0
 28 25  1  0  0  0  0
 28 29  1  0  0  0  0
 30 28  1  0  0  0  0
 31 30  1  0  0  0  0
 32 30  2  0  0  0  0
M  END
>  <MODEL>
5

>  <REMARK>
  Name = ZINC14650825
                            x       y       z     vdW  Elec       q    Type
                         _______ _______ _______ _____ _____    ______ ____

>  <TORSDO>
F 9

>  <minimizedAffinity>
-8.3898131728467291

$$$$
ZINC14650825
 OpenBabel10211216213D

 32 33  0  0  0  0  0  0  0  0999 V2000
   50.1530   50.5480   18.0040 C   0  0  0  0  0  0  0  0  0  0  0  0
   50.6500   50.7390   19.2430 N   0  0  0  0  0  0  0  0  0  0  0  0
   50.0510   50.7820   20.0050 H   0  0  0  0  0  0  0  0  0  0  0  0
   50.9040   50.4950   17.0500 O   0  0  0  0  0  0  0  0  0  0  0  0
   47.9700   51.4200   17.1740 C   0  0  0  0  0  0  0  0  0  0  0  0
   46.6030   51.2720   16.9890 C   0  0  0  0  0  0  0  0  0  0  0  0
   45.9630   50.1340   17.4360 C   0  0  0  0  0  0  0  0  0  0  0  0
   46.6800   49.1280   18.0670 C   0  0  0  0  0  0  0  0  0  0  0  0
   45.7890   47.5750   18.6740 Br  0  0  0  0  0  0  0  0  0  0  0  0
   48.0400   49.2560   18.2540 C   0  0  0  0  0  0  0  0  0  0  0  0
   48.6990   50.4040   17.8070 C   0  0  0  0  0  0  0  0  0  0  0  0
   48.5990   52.5410   16.7400 O   0  0  0  0  0  0  0  0  0  0  0  0
   47.7710   53.6180   16.2940 C   0  0  0  0  0  0  0  0  0  0  0  0
   48.2070   54.9130   16.9820 C   0  0  0  0  0  0  0  0  0  0  0  0
   46.7890   55.8300   15.1400 C   0  0  0  0  0  0  0  0  0  0  0  0
   48.0110   56.0900   16.0230 C   0  0  0  0  0  0  0  0  0  0  0  0
   47.7940   57.3730   16.8270 C   0  0  0  0  0  0  0  0  0  0  0  0
   51.9790   50.8720   19.4230 C   0  0  0  0  0  0  0  0  0  0  0  0
   52.9050   49.5450   19.9820 S   0  0  0  0  0  0  0  0  0  0  0  0
   52.5790   52.0510   19.1640 N   0  0  0  0  0  0  0  0  0  0  0  0
   53.3430   52.0850   18.5680 H   0  0  0  0  0  0  0  0  0  0  0  0
   52.1000   53.2260   19.7570 C   0  0  0  0  0  0  0  0  0  0  0  0
   51.8870   54.3570   18.9820 C   0  0  0  0  0  0  0  0  0  0  0  0
   51.4130   55.5150   19.5660 C   0  0  0  0  0  0  0  0  0  0  0  0
   51.1490   55.5470   20.9290 C   0  0  0  0  0  0  0  0  0  0  0  0
   51.3670   54.4180   21.7050 C   0  0  0  0  0  0  0  0  0  0  0  0
   51.8360   53.2580   21.1200 C   0  0  0  0  0  0  0  0  0  0  0  0
   50.6690   56.7220   21.5210 N   0  0  0  0  0  0  0  0  0  0  0  0
   51.2610   57.2720   22.0580 H   0  0  0  0  0  0  0  0  0  0  0  0
   49.3860   57.0920   21.3410 C   0  0  0  0  0  0  0  0  0  0  0  0
   48.8520   58.3240   22.0260 C   0  0  0  0  0  0  0  0  0  0  0  0
   48.6590   56.4330   20.6280 O   0  0  0  0  0  0  0  0  0  0  0  0
  1  2  1  0  0  0  0
  2 18  1  0  0  0  0
  2  3  1  0  0  0  0
  4  1  2  0  0  0  0
  5 11  1  0  0  0  0
  6  5  2  0  0  0  0
  6  7  1  0  0  0  0
  7  8  2  0  0  0  0
  8 10  1  0  0  0  0
  8  9  1  0  0  0  0
 11  1  1  0  0  0  0
 11 10  2  0  0  0  0
 12  5  1  0  0  0  0
 13 12  1  0  0  0  0
 13 14  1  0  0  0  0
 15 16  1  0  0  0  0
 16 17  1  0  0  0  0
 16 14  1  0  0  0  0
 18 19  2  0  0  0  0
 20 18  1  0  0  0  0
 20 22  1  0  0  0  0
 21 20  1  0  0  0  0
 22 27  2  0  0  0  0
 23 24  2  0  0  0  0
 23 22  1  0  0  0  0
 24 25  1  0  0  0  0
 25 28  1  0  0  0  0
 25 26  2  0  0  0  0
 27 26  1  0  0  0  0
 28 29  1  0  0  0  0
 30 28  1  0  0  0  0
 30 31  1  0  0  0  0
 32 30  2  0  0  0  0
M  END
>  <MODEL>
6

>  <REMARK>
  Name = ZINC14650825
                            x       y       z     vdW  Elec       q    Type
                         _______ _______ _______ _____ _____    ______ ____

>  <TORSDO>
F 9

>  <minimizedAffinity>
-8.340835374913576

$$$$
ZINC14650825
 OpenBabel10211216213D

 32 33  0  0  0  0  0  0  0  0999 V2000
   48.7440   52.4970   17.4810 C   0  0  0  0  0  0  0  0  0  0  0  0
   49.9950   51.9940   17.4980 N   0  0  0  0  0  0  0  0  0  0  0  0
   50.7580   52.5870   17.4140 H   0  0  0  0  0  0  0  0  0  0  0  0
   47.7880   51.7540   17.5840 O   0  0  0  0  0  0  0  0  0  0  0  0
   49.0030   54.8300   18.3220 C   0  0  0  0  0  0  0  0  0  0  0  0
   48.8070   56.1950   18.1730 C   0  0  0  0  0  0  0  0  0  0  0  0
   48.1450   56.6830   17.0640 C   0  0  0  0  0  0  0  0  0  0  0  0
   47.6780   55.8150   16.0890 C   0  0  0  0  0  0  0  0  0  0  0  0
   46.7740   56.4990   14.5750 Br  0  0  0  0  0  0  0  0  0  0  0  0
   47.8690   54.4560   16.2170 C   0  0  0  0  0  0  0  0  0  0  0  0
   48.5360   53.9490   17.3360 C   0  0  0  0  0  0  0  0  0  0  0  0
   49.6480   54.3490   19.4150 O   0  0  0  0  0  0  0  0  0  0  0  0
   50.8620   55.0020   19.7910 C   0  0  0  0  0  0  0  0  0  0  0  0
   50.9580   55.0600   21.3160 C   0  0  0  0  0  0  0  0  0  0  0  0
   52.1600   57.1950   20.8250 C   0  0  0  0  0  0  0  0  0  0  0  0
   51.1600   56.5100   21.7600 C   0  0  0  0  0  0  0  0  0  0  0  0
   49.8230   57.2520   21.7060 C   0  0  0  0  0  0  0  0  0  0  0  0
   50.1850   50.6660   17.6290 C   0  0  0  0  0  0  0  0  0  0  0  0
   50.3530   49.9750   19.1860 S   0  0  0  0  0  0  0  0  0  0  0  0
   50.2440   49.8820   16.5340 N   0  0  0  0  0  0  0  0  0  0  0  0
   51.0740   49.8050   16.0370 H   0  0  0  0  0  0  0  0  0  0  0  0
   49.1080   49.1800   16.1140 C   0  0  0  0  0  0  0  0  0  0  0  0
   48.4170   49.5920   14.9820 C   0  0  0  0  0  0  0  0  0  0  0  0
   47.2970   48.8990   14.5660 C   0  0  0  0  0  0  0  0  0  0  0  0
   46.8620   47.7900   15.2800 C   0  0  0  0  0  0  0  0  0  0  0  0
   47.5490   47.3820   16.4150 C   0  0  0  0  0  0  0  0  0  0  0  0
   48.6730   48.0720   16.8270 C   0  0  0  0  0  0  0  0  0  0  0  0
   45.7260   47.0870   14.8590 N   0  0  0  0  0  0  0  0  0  0  0  0
   45.8070   46.3950   14.1840 H   0  0  0  0  0  0  0  0  0  0  0  0
   44.5230   47.3680   15.3950 C   0  0  0  0  0  0  0  0  0  0  0  0
   43.2910   46.6530   14.9000 C   0  0  0  0  0  0  0  0  0  0  0  0
   44.4290   48.1970   16.2760 O   0  0  0  0  0  0  0  0  0  0  0  0
  1  2  1  0  0  0  0
  1  4  2  0  0  0  0
  2 18  1  0  0  0  0
  3  2  1  0  0  0  0
  5 12  1  0  0  0  0
  6  5  1  0  0  0  0
  7  6  2  0  0  0  0
  8 10  2  0  0  0  0
  8  7  1  0  0  0  0
  9  8  1  0  0  0  0
 10 11  1  0  0  0  0
 11  1  1  0  0  0  0
 11  5  2  0  0  0  0
 12 13  1  0  0  0  0
 13 14  1  0  0  0  0
 14 16  1  0  0  0  0
 15 16  1  0  0  0  0
 17 16  1  0  0  0  0
 18 19  2  0  0  0  0
 20 18  1  0  0  0  0
 21 20  1  0  0  0  0
 22 20  1  0  0  0  0
 22 27  2  0  0  0  0
 23 22  1  0  0  0  0
 24 23  2  0  0  0  0
 24 25  1  0  0  0  0
 25 26  2  0  0  0  0
 26 27  1  0  0  0  0
 28 25  1  0  0  0  0
 28 30  1  0  0  0  0
 29 28  1  0  0  0  0
 30 32  2  0  0  0  0
 31 30  1  0  0  0  0
M  END
>  <MODEL>
7

>  <REMARK>
  Name = ZINC14650825
                            x       y       z     vdW  Elec       q    Type
                         _______ _______ _______ _____ _____    ______ ____

>  <TORSDO>
F 9

>  <minimizedAffinity>
-8.3115751080420281

$$$$
ZINC14650825
 OpenBabel10211216213D

 32 33  0  0  0  0  0  0  0  0999 V2000
   50.4250   51.4400   18.4610 C   0  0  0  0  0  0  0  0  0  0  0  0
   50.2040   51.2420   19.7760 N   0  0  0  0  0  0  0  0  0  0  0  0
   49.3890   51.5730   20.1860 H   0  0  0  0  0  0  0  0  0  0  0  0
   51.4460   51.0260   17.9470 O   0  0  0  0  0  0  0  0  0  0  0  0
   48.6250   51.4580   16.7360 C   0  0  0  0  0  0  0  0  0  0  0  0
   47.6870   52.1430   15.9770 C   0  0  0  0  0  0  0  0  0  0  0  0
   47.5540   53.5100   16.1110 C   0  0  0  0  0  0  0  0  0  0  0  0
   48.3500   54.2090   17.0060 C   0  0  0  0  0  0  0  0  0  0  0  0
   48.1550   56.0810   17.1790 Br  0  0  0  0  0  0  0  0  0  0  0  0
   49.2830   53.5430   17.7730 C   0  0  0  0  0  0  0  0  0  0  0  0
   49.4290   52.1590   17.6460 C   0  0  0  0  0  0  0  0  0  0  0  0
   48.7610   50.1150   16.6000 O   0  0  0  0  0  0  0  0  0  0  0  0
   47.5600   49.3410   16.5720 C   0  0  0  0  0  0  0  0  0  0  0  0
   46.9480   49.3000   17.9730 C   0  0  0  0  0  0  0  0  0  0  0  0
   45.1760   48.4480   16.4310 C   0  0  0  0  0  0  0  0  0  0  0  0
   45.5240   48.7460   17.8910 C   0  0  0  0  0  0  0  0  0  0  0  0
   45.4290   47.4580   18.7110 C   0  0  0  0  0  0  0  0  0  0  0  0
   51.1140   50.5860   20.5210 C   0  0  0  0  0  0  0  0  0  0  0  0
   51.0620   48.8790   20.6320 S   0  0  0  0  0  0  0  0  0  0  0  0
   52.0670   51.2750   21.1810 N   0  0  0  0  0  0  0  0  0  0  0  0
   52.8070   50.8040   21.5950 H   0  0  0  0  0  0  0  0  0  0  0  0
   51.9880   52.6700   21.2700 C   0  0  0  0  0  0  0  0  0  0  0  0
   51.5820   53.2680   22.4550 C   0  0  0  0  0  0  0  0  0  0  0  0
   51.5040   54.6440   22.5440 C   0  0  0  0  0  0  0  0  0  0  0  0
   51.8340   55.4290   21.4470 C   0  0  0  0  0  0  0  0  0  0  0  0
   52.2350   54.8310   20.2600 C   0  0  0  0  0  0  0  0  0  0  0  0
   52.3170   53.4550   20.1740 C   0  0  0  0  0  0  0  0  0  0  0  0
   51.7560   56.8250   21.5360 N   0  0  0  0  0  0  0  0  0  0  0  0
   50.8900   57.2630   21.5410 H   0  0  0  0  0  0  0  0  0  0  0  0
   52.8820   57.5590   21.6220 C   0  0  0  0  0  0  0  0  0  0  0  0
   52.8020   59.0640   21.6590 C   0  0  0  0  0  0  0  0  0  0  0  0
   53.9630   57.0090   21.6690 O   0  0  0  0  0  0  0  0  0  0  0  0
  1  2  1  0  0  0  0
  2  3  1  0  0  0  0
  2 18  1  0  0  0  0
  4  1  2  0  0  0  0
  5 11  2  0  0  0  0
  6  7  2  0  0  0  0
  6  5  1  0  0  0  0
  7  8  1  0  0  0  0
  8  9  1  0  0  0  0
  8 10  2  0  0  0  0
 11 10  1  0  0  0  0
 11  1  1  0  0  0  0
 12  5  1  0  0  0  0
 13 12  1  0  0  0  0
 13 14  1  0  0  0  0
 15 16  1  0  0  0  0
 16 14  1  0  0  0  0
 16 17  1  0  0  0  0
 18 19  2  0  0  0  0
 18 20  1  0  0  0  0
 20 22  1  0  0  0  0
 20 21  1  0  0  0  0
 22 23  2  0  0  0  0
 23 24  1  0  0  0  0
 25 28  1  0  0  0  0
 25 24  2  0  0  0  0
 26 25  1  0  0  0  0
 27 26  2  0  0  0  0
 27 22  1  0  0  0  0
 28 29  1  0  0  0  0
 28 30  1  0  0  0  0
 30 31  1  0  0  0  0
 30 32  2  0  0  0  0
M  END
>  <MODEL>
8

>  <REMARK>
  Name = ZINC14650825
                            x       y       z     vdW  Elec       q    Type
                         _______ _______ _______ _____ _____    ______ ____

>  <TORSDO>
F 9

>  <minimizedAffinity>
-8.1511435037280986

$$$$
ZINC14650825
 OpenBabel10211216213D

 32 33  0  0  0  0  0  0  0  0999 V2000
   48.9790   54.1950   18.2150 C   0  0  0  0  0  0  0  0  0  0  0  0
   50.3050   54.0040   18.3700 N   0  0  0  0  0  0  0  0  0  0  0  0
   50.9220   54.7360   18.2120 H   0  0  0  0  0  0  0  0  0  0  0  0
   48.2060   53.2790   18.4120 O   0  0  0  0  0  0  0  0  0  0  0  0
   48.3530   56.5490   18.7480 C   0  0  0  0  0  0  0  0  0  0  0  0
   47.8760   57.7900   18.3530 C   0  0  0  0  0  0  0  0  0  0  0  0
   47.5060   58.0030   17.0400 C   0  0  0  0  0  0  0  0  0  0  0  0
   47.6130   56.9830   16.1070 C   0  0  0  0  0  0  0  0  0  0  0  0
   47.1030   57.2910   14.3120 Br  0  0  0  0  0  0  0  0  0  0  0  0
   48.0910   55.7450   16.4810 C   0  0  0  0  0  0  0  0  0  0  0  0
   48.4680   55.5160   17.8070 C   0  0  0  0  0  0  0  0  0  0  0  0
   48.7110   56.3370   20.0400 O   0  0  0  0  0  0  0  0  0  0  0  0
   48.5290   57.4240   20.9500 C   0  0  0  0  0  0  0  0  0  0  0  0
   49.8020   57.6140   21.7760 C   0  0  0  0  0  0  0  0  0  0  0  0
   51.9160   57.2800   20.4870 C   0  0  0  0  0  0  0  0  0  0  0  0
   50.8510   56.5880   21.3410 C   0  0  0  0  0  0  0  0  0  0  0  0
   51.5100   55.9740   22.5780 C   0  0  0  0  0  0  0  0  0  0  0  0
   50.7720   52.7960   18.7420 C   0  0  0  0  0  0  0  0  0  0  0  0
   51.1230   52.4830   20.3880 S   0  0  0  0  0  0  0  0  0  0  0  0
   50.9660   51.8350   17.8170 N   0  0  0  0  0  0  0  0  0  0  0  0
   51.8180   51.7680   17.3570 H   0  0  0  0  0  0  0  0  0  0  0  0
   49.9370   50.9320   17.5200 C   0  0  0  0  0  0  0  0  0  0  0  0
   49.3320   50.9560   16.2710 C   0  0  0  0  0  0  0  0  0  0  0  0
   48.3190   50.0660   15.9770 C   0  0  0  0  0  0  0  0  0  0  0  0
   47.9060   49.1450   16.9310 C   0  0  0  0  0  0  0  0  0  0  0  0
   48.5070   49.1240   18.1830 C   0  0  0  0  0  0  0  0  0  0  0  0
   49.5250   50.0110   18.4740 C   0  0  0  0  0  0  0  0  0  0  0  0
   46.8780   48.2410   16.6340 N   0  0  0  0  0  0  0  0  0  0  0  0
   47.0870   47.3860   16.2260 H   0  0  0  0  0  0  0  0  0  0  0  0
   45.5990   48.5570   16.9200 C   0  0  0  0  0  0  0  0  0  0  0  0
   44.4870   47.6100   16.5460 C   0  0  0  0  0  0  0  0  0  0  0  0
   45.3420   49.6030   17.4770 O   0  0  0  0  0  0  0  0  0  0  0  0
  1  2  1  0  0  0  0
  1  4  2  0  0  0  0
  2 18  1  0  0  0  0
  3  2  1  0  0  0  0
  5 12  1  0  0  0  0
  6  5  1  0  0  0  0
  7  6  2  0  0  0  0
  8 10  2  0  0  0  0
  8  7  1  0  0  0  0
  9  8  1  0  0  0  0
 10 11  1  0  0  0  0
 11  1  1  0  0  0  0
 11  5  2  0  0  0  0
 12 13  1  0  0  0  0
 13 14  1  0  0  0  0
 15 16  1  0  0  0  0
 16 14  1  0  0  0  0
 16 17  1  0  0  0  0
 18 19  2  0  0  0  0
 20 18  1  0  0  0  0
 21 20  1  0  0  0  0
 22 20  1  0  0  0  0
 22 27  2  0  0  0  0
 23 22  1  0  0  0  0
 24 23  2  0  0  0  0
 24 25  1  0  0  0  0
 25 26  2  0  0  0  0
 26 27  1  0  0  0  0
 28 30  1  0  0  0  0
 28 25  1  0  0  0  0
 29 28  1  0  0  0  0
 30 32  2  0  0  0  0
 31 30  1  0  0  0  0
M  END
>  <MODEL>
9

>  <REMARK>
  Name = ZINC14650825
                            x       y       z     vdW  Elec       q    Type
                         _______ _______ _______ _____ _____    ______ ____

>  <TORSDO>
F 9

>  <minimizedAffinity>
-8.0874732566098437

$$$$
ZINC35487763
 OpenBabel10211216223D

 24 26  0  0  1  0  0  0  0  0999 V2000
   51.3300   55.3060   21.0420 C   0  0  0  0  0  0  0  0  0  0  0  0
   51.4130   54.5520   22.2000 C   0  0  0  0  0  0  0  0  0  0  0  0
   51.7580   53.2180   22.1390 C   0  0  0  0  0  0  0  0  0  0  0  0
   52.0260   52.6250   20.9090 C   0  0  0  0  0  0  0  0  0  0  0  0
   51.9430   53.3850   19.7420 C   0  0  0  0  0  0  0  0  0  0  0  0
   52.2070   52.8100   18.5020 N   0  0  0  0  0  0  0  0  0  0  0  0
   52.5470   51.5080   18.4200 C   0  0  0  0  0  0  0  0  0  0  0  0
   52.6350   50.6950   19.6670 C   0  0  0  0  0  0  0  0  0  0  0  0
   52.9400   49.5210   19.6140 O   0  0  0  0  0  0  0  0  0  0  0  0
   52.7800   51.0010   17.3400 O   0  0  0  0  0  0  0  0  0  0  0  0
   52.1480   53.3470   17.6970 H   0  0  0  0  0  0  0  0  0  0  0  0
   52.3750   51.2790   20.8550 N   0  0  0  0  0  0  0  0  0  0  0  0
   52.4290   50.7580   21.6730 H   0  0  0  0  0  0  0  0  0  0  0  0
   51.5870   54.7270   19.8170 C   0  0  0  0  0  0  0  0  0  0  0  0
   50.9520   56.7630   21.1190 C   0  0  1  0  0  0  0  0  0  0  0  0
   49.4700   56.8870   21.4770 C   0  0  2  0  0  0  0  0  0  0  0  0
   48.6050   56.3550   20.3140 C   0  0  0  0  0  0  0  0  0  0  0  0
   47.4250   57.3660   20.2920 C   0  0  0  0  0  0  0  0  0  0  0  0
   48.1480   58.6700   20.7080 C   0  0  0  0  0  0  0  0  0  0  0  0
   49.1310   58.2640   21.6760 O   0  0  0  0  0  0  0  0  0  0  0  0
   52.7560   58.2960   21.5120 C   0  0  0  0  0  0  0  0  0  0  0  0
   51.7620   57.4250   22.1520 N   0  0  0  0  0  0  0  0  0  0  0  0
   51.1620   57.9790   22.7460 H   0  0  0  0  0  0  0  0  0  0  0  0
   52.2340   56.7270   22.7080 H   0  0  0  0  0  0  0  0  0  0  0  0
  1  2  2  0  0  0  0
  3  2  1  0  0  0  0
  4  3  2  0  0  0  0
  5 14  2  0  0  0  0
  5  4  1  0  0  0  0
  6  5  1  0  0  0  0
  7  6  1  0  0  0  0
  7  8  1  0  0  0  0
  8 12  1  0  0  0  0
  9  8  2  0  0  0  0
 10  7  2  0  0  0  0
 11  6  1  0  0  0  0
 12  4  1  0  0  0  0
 12 13  1  0  0  0  0
 14  1  1  0  0  0  0
 15  1  1  1  0  0  0
 15 16  1  0  0  0  0
 15 22  1  0  0  0  0
 16 17  1  6  0  0  0
 16 20  1  0  0  0  0
 18 17  1  0  0  0  0
 18 19  1  0  0  0  0
 19 20  1  0  0  0  0
 21 22  1  0  0  0  0
 22 24  1  0  0  0  0
 22 23  1  0  0  0  0
M  END
>  <MODEL>
1

>  <REMARK>
  Name = ZINC35487763
                            x       y       z     vdW  Elec       q    Type
                         _______ _______ _______ _____ _____    ______ ____

>  <TORSDO>
F 3

>  <minimizedAffinity>
-8.3327009706963224

$$$$
ZINC35487763
 OpenBabel10211216223D

 24 26  0  0  1  0  0  0  0  0999 V2000
   47.6590   49.8310   17.6400 C   0  0  0  0  0  0  0  0  0  0  0  0
   47.5450   51.1330   17.1820 C   0  0  0  0  0  0  0  0  0  0  0  0
   48.6080   52.0060   17.2950 C   0  0  0  0  0  0  0  0  0  0  0  0
   49.8000   51.5790   17.8710 C   0  0  0  0  0  0  0  0  0  0  0  0
   49.9140   50.2670   18.3320 C   0  0  0  0  0  0  0  0  0  0  0  0
   51.1000   49.8210   18.9110 N   0  0  0  0  0  0  0  0  0  0  0  0
   52.1500   50.6570   19.0310 C   0  0  0  0  0  0  0  0  0  0  0  0
   52.0280   52.0600   18.5380 C   0  0  0  0  0  0  0  0  0  0  0  0
   52.9630   52.8280   18.6360 O   0  0  0  0  0  0  0  0  0  0  0  0
   53.1870   50.2720   19.5340 O   0  0  0  0  0  0  0  0  0  0  0  0
   51.1690   48.9070   19.2280 H   0  0  0  0  0  0  0  0  0  0  0  0
   50.8680   52.4640   17.9810 N   0  0  0  0  0  0  0  0  0  0  0  0
   50.7780   53.3750   17.6570 H   0  0  0  0  0  0  0  0  0  0  0  0
   48.8340   49.3990   18.2180 C   0  0  0  0  0  0  0  0  0  0  0  0
   46.4930   48.8860   17.5120 C   0  0  1  0  0  0  0  0  0  0  0  0
   46.4970   48.2570   16.1160 C   0  0  2  0  0  0  0  0  0  0  0  0
   45.0760   48.3100   15.5150 C   0  0  0  0  0  0  0  0  0  0  0  0
   44.9730   46.9370   14.7940 C   0  0  0  0  0  0  0  0  0  0  0  0
   45.8070   46.0430   15.7460 C   0  0  0  0  0  0  0  0  0  0  0  0
   46.8820   46.8810   16.2040 O   0  0  0  0  0  0  0  0  0  0  0  0
   45.2740   47.5150   19.0580 C   0  0  0  0  0  0  0  0  0  0  0  0
   46.6070   47.8270   18.5250 N   0  0  0  0  0  0  0  0  0  0  0  0
   47.0030   47.0000   18.1040 H   0  0  0  0  0  0  0  0  0  0  0  0
   47.2040   48.1420   19.2750 H   0  0  0  0  0  0  0  0  0  0  0  0
  1 14  2  0  0  0  0
  2  3  2  0  0  0  0
  2  1  1  0  0  0  0
  3  4  1  0  0  0  0
  4 12  1  0  0  0  0
  4  5  2  0  0  0  0
  5  6  1  0  0  0  0
  6  7  1  0  0  0  0
  6 11  1  0  0  0  0
  7 10  2  0  0  0  0
  8  9  2  0  0  0  0
  8  7  1  0  0  0  0
 12  8  1  0  0  0  0
 13 12  1  0  0  0  0
 14  5  1  0  0  0  0
 15  1  1  6  0  0  0
 15 22  1  0  0  0  0
 16 17  1  1  0  0  0
 16 20  1  0  0  0  0
 16 15  1  0  0  0  0
 18 17  1  0  0  0  0
 18 19  1  0  0  0  0
 19 20  1  0  0  0  0
 22 21  1  0  0  0  0
 22 24  1  0  0  0  0
 23 22  1  0  0  0  0
M  END
>  <MODEL>
2

>  <REMARK>
  Name = ZINC35487763
                            x       y       z     vdW  Elec       q    Type
                         _______ _______ _______ _____ _____    ______ ____

>  <TORSDO>
F 3

>  <minimizedAffinity>
-7.546956310307106

$$$$
ZINC35487763
 OpenBabel10211216223D

 24 26  0  0  1  0  0  0  0  0999 V2000
   49.2690   49.4920   18.8130 C   0  0  0  0  0  0  0  0  0  0  0  0
   50.0660   49.0780   19.8670 C   0  0  0  0  0  0  0  0  0  0  0  0
   50.8950   49.9760   20.5070 C   0  0  0  0  0  0  0  0  0  0  0  0
   50.9320   51.3040   20.0950 C   0  0  0  0  0  0  0  0  0  0  0  0
   50.1270   51.7210   19.0330 C   0  0  0  0  0  0  0  0  0  0  0  0
   50.1500   53.0460   18.6060 N   0  0  0  0  0  0  0  0  0  0  0  0
   50.9520   53.9410   19.2180 C   0  0  0  0  0  0  0  0  0  0  0  0
   51.8110   53.4950   20.3530 C   0  0  0  0  0  0  0  0  0  0  0  0
   52.5400   54.2850   20.9180 O   0  0  0  0  0  0  0  0  0  0  0  0
   50.9740   55.0980   18.8500 O   0  0  0  0  0  0  0  0  0  0  0  0
   49.5870   53.3260   17.8670 H   0  0  0  0  0  0  0  0  0  0  0  0
   51.7680   52.2050   20.7460 N   0  0  0  0  0  0  0  0  0  0  0  0
   52.3240   51.9050   21.4830 H   0  0  0  0  0  0  0  0  0  0  0  0
   49.3020   50.8050   18.3920 C   0  0  0  0  0  0  0  0  0  0  0  0
   48.3670   48.5030   18.1200 C   0  0  1  0  0  0  0  0  0  0  0  0
   46.9580   49.0900   18.0090 C   0  0  2  0  0  0  0  0  0  0  0  0
   45.9260   48.0790   18.5550 C   0  0  0  0  0  0  0  0  0  0  0  0
   44.7470   48.2410   17.5560 C   0  0  0  0  0  0  0  0  0  0  0  0
   45.5140   48.5330   16.2420 C   0  0  0  0  0  0  0  0  0  0  0  0
   46.6410   49.3350   16.6340 O   0  0  0  0  0  0  0  0  0  0  0  0
   48.8440   46.7760   16.5240 C   0  0  0  0  0  0  0  0  0  0  0  0
   48.8890   48.2230   16.7750 N   0  0  0  0  0  0  0  0  0  0  0  0
   48.3240   48.7010   16.0890 H   0  0  0  0  0  0  0  0  0  0  0  0
   49.8430   48.5470   16.7100 H   0  0  0  0  0  0  0  0  0  0  0  0
  1  2  1  0  0  0  0
  2  3  2  0  0  0  0
  4  3  1  0  0  0  0
  4 12  1  0  0  0  0
  5  4  2  0  0  0  0
  6  5  1  0  0  0  0
  6  7  1  0  0  0  0
  7  8  1  0  0  0  0
  8 12  1  0  0  0  0
  8  9  2  0  0  0  0
 10  7  2  0  0  0  0
 11  6  1  0  0  0  0
 12 13  1  0  0  0  0
 14  1  2  0  0  0  0
 14  5  1  0  0  0  0
 15 22  1  6  0  0  0
 15  1  1  0  0  0  0
 16 20  1  6  0  0  0
 16 15  1  0  0  0  0
 16 17  1  0  0  0  0
 18 17  1  0  0  0  0
 19 20  1  0  0  0  0
 19 18  1  0  0  0  0
 21 22  1  0  0  0  0
 23 22  1  0  0  0  0
 24 22  1  0  0  0  0
M  END
>  <MODEL>
3

>  <REMARK>
  Name = ZINC35487763
                            x       y       z     vdW  Elec       q    Type
                         _______ _______ _______ _____ _____    ______ ____

>  <TORSDO>
F 3

>  <minimizedAffinity>
-7.4593731990993826

$$$$
ZINC35487763
 OpenBabel10211216223D

 24 26  0  0  1  0  0  0  0  0999 V2000
   50.3420   54.5830   20.2050 C   0  0  0  0  0  0  0  0  0  0  0  0
   49.3730   55.3970   20.7660 C   0  0  0  0  0  0  0  0  0  0  0  0
   49.7160   56.6290   21.2860 C   0  0  0  0  0  0  0  0  0  0  0  0
   51.0390   57.0570   21.2460 C   0  0  0  0  0  0  0  0  0  0  0  0
   52.0150   56.2360   20.6800 C   0  0  0  0  0  0  0  0  0  0  0  0
   53.3440   56.6460   20.6310 N   0  0  0  0  0  0  0  0  0  0  0  0
   53.7000   57.8460   21.1320 C   0  0  0  0  0  0  0  0  0  0  0  0
   52.6570   58.7240   21.7380 C   0  0  0  0  0  0  0  0  0  0  0  0
   52.9570   59.8080   22.1940 O   0  0  0  0  0  0  0  0  0  0  0  0
   54.8590   58.2100   21.0910 O   0  0  0  0  0  0  0  0  0  0  0  0
   54.0150   56.0680   20.2350 H   0  0  0  0  0  0  0  0  0  0  0  0
   51.3770   58.3010   21.7710 N   0  0  0  0  0  0  0  0  0  0  0  0
   50.6900   58.8640   22.1630 H   0  0  0  0  0  0  0  0  0  0  0  0
   51.6580   54.9940   20.1660 C   0  0  0  0  0  0  0  0  0  0  0  0
   49.9580   53.2390   19.6400 C   0  0  1  0  0  0  0  0  0  0  0  0
   49.7950   53.3520   18.1230 C   0  0  2  0  0  0  0  0  0  0  0  0
   48.3140   53.6170   17.7750 C   0  0  0  0  0  0  0  0  0  0  0  0
   48.1160   52.7490   16.5010 C   0  0  0  0  0  0  0  0  0  0  0  0
   49.0460   51.5510   16.8140 C   0  0  0  0  0  0  0  0  0  0  0  0
   50.1750   52.1200   17.5000 O   0  0  0  0  0  0  0  0  0  0  0  0
   50.9790   51.9410   21.3810 C   0  0  0  0  0  0  0  0  0  0  0  0
   51.0100   52.2600   19.9470 N   0  0  0  0  0  0  0  0  0  0  0  0
   50.8540   51.4190   19.4120 H   0  0  0  0  0  0  0  0  0  0  0  0
   51.9110   52.6480   19.7080 H   0  0  0  0  0  0  0  0  0  0  0  0
  1  2  1  0  0  0  0
  2  3  2  0  0  0  0
  4  3  1  0  0  0  0
  4 12  1  0  0  0  0
  5  4  2  0  0  0  0
  6  5  1  0  0  0  0
  6  7  1  0  0  0  0
  7  8  1  0  0  0  0
  8 12  1  0  0  0  0
  8  9  2  0  0  0  0
 10  7  2  0  0  0  0
 11  6  1  0  0  0  0
 12 13  1  0  0  0  0
 14  1  2  0  0  0  0
 14  5  1  0  0  0  0
 15 22  1  6  0  0  0
 15  1  1  0  0  0  0
 16 20  1  1  0  0  0
 16 15  1  0  0  0  0
 17 16  1  0  0  0  0
 18 19  1  0  0  0  0
 18 17  1  0  0  0  0
 19 20  1  0  0  0  0
 22 21  1  0  0  0  0
 23 22  1  0  0  0  0
 24 22  1  0  0  0  0
M  END
>  <MODEL>
4

>  <REMARK>
  Name = ZINC35487763
                            x       y       z     vdW  Elec       q    Type
                         _______ _______ _______ _____ _____    ______ ____

>  <TORSDO>
F 3

>  <minimizedAffinity>
-7.4324080708005997

$$$$
ZINC35487763
 OpenBabel10211216223D

 24 26  0  0  1  0  0  0  0  0999 V2000
   49.5660   50.2820   18.1710 C   0  0  0  0  0  0  0  0  0  0  0  0
   49.2700   50.7070   16.8860 C   0  0  0  0  0  0  0  0  0  0  0  0
   48.1060   50.2980   16.2690 C   0  0  0  0  0  0  0  0  0  0  0  0
   47.2230   49.4560   16.9370 C   0  0  0  0  0  0  0  0  0  0  0  0
   47.5210   49.0280   18.2310 C   0  0  0  0  0  0  0  0  0  0  0  0
   46.6510   48.1850   18.9170 N   0  0  0  0  0  0  0  0  0  0  0  0
   45.5070   47.7740   18.3320 C   0  0  0  0  0  0  0  0  0  0  0  0
   45.1890   48.2310   16.9480 C   0  0  0  0  0  0  0  0  0  0  0  0
   44.1640   47.8730   16.4040 O   0  0  0  0  0  0  0  0  0  0  0  0
   44.7430   47.0390   18.9260 O   0  0  0  0  0  0  0  0  0  0  0  0
   46.8660   47.8940   19.8160 H   0  0  0  0  0  0  0  0  0  0  0  0
   46.0500   49.0490   16.3090 N   0  0  0  0  0  0  0  0  0  0  0  0
   45.8520   49.3520   15.4080 H   0  0  0  0  0  0  0  0  0  0  0  0
   48.7010   49.4420   18.8400 C   0  0  0  0  0  0  0  0  0  0  0  0
   50.8390   50.7340   18.8370 C   0  0  1  0  0  0  0  0  0  0  0  0
   50.5410   51.9190   19.7580 C   0  0  2  0  0  0  0  0  0  0  0  0
   51.5050   53.0820   19.4430 C   0  0  0  0  0  0  0  0  0  0  0  0
   51.8230   53.6380   20.8590 C   0  0  0  0  0  0  0  0  0  0  0  0
   51.7980   52.3370   21.6980 C   0  0  0  0  0  0  0  0  0  0  0  0
   50.7480   51.5380   21.1230 O   0  0  0  0  0  0  0  0  0  0  0  0
   52.8620   49.6360   19.5140 C   0  0  0  0  0  0  0  0  0  0  0  0
   51.3980   49.6280   19.6280 N   0  0  0  0  0  0  0  0  0  0  0  0
   51.1350   49.7410   20.5960 H   0  0  0  0  0  0  0  0  0  0  0  0
   51.0380   48.7510   19.2810 H   0  0  0  0  0  0  0  0  0  0  0  0
  1 14  2  0  0  0  0
  2  1  1  0  0  0  0
  3  2  2  0  0  0  0
  3  4  1  0  0  0  0
  4  5  2  0  0  0  0
  5 14  1  0  0  0  0
  5  6  1  0  0  0  0
  6 11  1  0  0  0  0
  7  6  1  0  0  0  0
  7 10  2  0  0  0  0
  8  7  1  0  0  0  0
  9  8  2  0  0  0  0
 12  4  1  0  0  0  0
 12  8  1  0  0  0  0
 13 12  1  0  0  0  0
 15  1  1  1  0  0  0
 15 22  1  0  0  0  0
 15 16  1  0  0  0  0
 16 17  1  1  0  0  0
 16 20  1  0  0  0  0
 17 18  1  0  0  0  0
 18 19  1  0  0  0  0
 20 19  1  0  0  0  0
 21 22  1  0  0  0  0
 22 23  1  0  0  0  0
 24 22  1  0  0  0  0
M  END
>  <MODEL>
5

>  <REMARK>
  Name = ZINC35487763
                            x       y       z     vdW  Elec       q    Type
                         _______ _______ _______ _____ _____    ______ ____

>  <TORSDO>
F 3

>  <minimizedAffinity>
-7.3436550211018687

$$$$
ZINC35487763
 OpenBabel10211216223D

 24 26  0  0  1  0  0  0  0  0999 V2000
   46.7470   49.5370   16.8070 C   0  0  0  0  0  0  0  0  0  0  0  0
   45.7190   49.2830   17.6990 C   0  0  0  0  0  0  0  0  0  0  0  0
   44.7150   48.3960   17.3690 C   0  0  0  0  0  0  0  0  0  0  0  0
   44.7330   47.7530   16.1360 C   0  0  0  0  0  0  0  0  0  0  0  0
   45.7690   48.0090   15.2370 C   0  0  0  0  0  0  0  0  0  0  0  0
   45.8050   47.3750   13.9980 N   0  0  0  0  0  0  0  0  0  0  0  0
   44.8340   46.5040   13.6560 C   0  0  0  0  0  0  0  0  0  0  0  0
   43.7260   46.2310   14.6160 C   0  0  0  0  0  0  0  0  0  0  0  0
   42.8430   45.4500   14.3270 O   0  0  0  0  0  0  0  0  0  0  0  0
   44.8610   45.9480   12.5760 O   0  0  0  0  0  0  0  0  0  0  0  0
   46.5300   47.5590   13.3810 H   0  0  0  0  0  0  0  0  0  0  0  0
   43.7180   46.8580   15.8100 N   0  0  0  0  0  0  0  0  0  0  0  0
   43.0010   46.6870   16.4420 H   0  0  0  0  0  0  0  0  0  0  0  0
   46.7720   48.9100   15.5790 C   0  0  0  0  0  0  0  0  0  0  0  0
   47.8390   50.5070   17.1770 C   0  0  1  0  0  0  0  0  0  0  0  0
   49.1040   49.7320   17.5540 C   0  0  2  0  0  0  0  0  0  0  0  0
   48.9250   49.0840   18.9440 C   0  0  0  0  0  0  0  0  0  0  0  0
   50.3300   49.2750   19.5790 C   0  0  0  0  0  0  0  0  0  0  0  0
   50.7440   50.6380   18.9700 C   0  0  0  0  0  0  0  0  0  0  0  0
   50.2180   50.6280   17.6310 O   0  0  0  0  0  0  0  0  0  0  0  0
   47.7550   52.7640   16.3660 C   0  0  0  0  0  0  0  0  0  0  0  0
   48.1260   51.3820   16.0310 N   0  0  0  0  0  0  0  0  0  0  0  0
   49.1110   51.3410   15.8140 H   0  0  0  0  0  0  0  0  0  0  0  0
   47.5920   51.0750   15.2310 H   0  0  0  0  0  0  0  0  0  0  0  0
  1 15  1  0  0  0  0
  1  2  2  0  0  0  0
  3  2  1  0  0  0  0
  4  3  2  0  0  0  0
  5 14  2  0  0  0  0
  5  4  1  0  0  0  0
  6  5  1  0  0  0  0
  7  6  1  0  0  0  0
  7  8  1  0  0  0  0
  8 12  1  0  0  0  0
  9  8  2  0  0  0  0
 10  7  2  0  0  0  0
 11  6  1  0  0  0  0
 12  4  1  0  0  0  0
 12 13  1  0  0  0  0
 14  1  1  0  0  0  0
 15 22  1  6  0  0  0
 15 16  1  0  0  0  0
 16 20  1  1  0  0  0
 16 17  1  0  0  0  0
 17 18  1  0  0  0  0
 19 18  1  0  0  0  0
 20 19  1  0  0  0  0
 22 21  1  0  0  0  0
 23 22  1  0  0  0  0
 24 22  1  0  0  0  0
M  END
>  <MODEL>
6

>  <REMARK>
  Name = ZINC35487763
                            x       y       z     vdW  Elec       q    Type
                         _______ _______ _______ _____ _____    ______ ____

>  <TORSDO>
F 3

>  <minimizedAffinity>
-7.22373532720807

$$$$
ZINC35487763
 OpenBabel10211216223D

 24 26  0  0  1  0  0  0  0  0999 V2000
   48.4900   50.3490   16.9540 C   0  0  0  0  0  0  0  0  0  0  0  0
   49.0980   50.1910   15.7200 C   0  0  0  0  0  0  0  0  0  0  0  0
   48.4620   49.4930   14.7150 C   0  0  0  0  0  0  0  0  0  0  0  0
   47.2040   48.9430   14.9390 C   0  0  0  0  0  0  0  0  0  0  0  0
   46.5910   49.1030   16.1830 C   0  0  0  0  0  0  0  0  0  0  0  0
   45.3310   48.5610   16.4260 N   0  0  0  0  0  0  0  0  0  0  0  0
   44.6920   47.8750   15.4570 C   0  0  0  0  0  0  0  0  0  0  0  0
   45.3470   47.7050   14.1280 C   0  0  0  0  0  0  0  0  0  0  0  0
   44.7880   47.0900   13.2430 O   0  0  0  0  0  0  0  0  0  0  0  0
   43.5920   47.4010   15.6640 O   0  0  0  0  0  0  0  0  0  0  0  0
   44.9130   48.6780   17.2930 H   0  0  0  0  0  0  0  0  0  0  0  0
   46.5670   48.2410   13.9200 N   0  0  0  0  0  0  0  0  0  0  0  0
   47.0020   48.1350   13.0590 H   0  0  0  0  0  0  0  0  0  0  0  0
   47.2450   49.8040   17.1900 C   0  0  0  0  0  0  0  0  0  0  0  0
   49.1920   51.1140   18.0460 C   0  0  1  0  0  0  0  0  0  0  0  0
   50.3160   50.2550   18.6290 C   0  0  2  0  0  0  0  0  0  0  0  0
   49.7150   49.1030   19.4630 C   0  0  0  0  0  0  0  0  0  0  0  0
   50.6920   49.0260   20.6690 C   0  0  0  0  0  0  0  0  0  0  0  0
   51.0670   50.5190   20.8390 C   0  0  0  0  0  0  0  0  0  0  0  0
   51.1300   51.0460   19.5020 O   0  0  0  0  0  0  0  0  0  0  0  0
   49.0190   53.5070   18.0110 C   0  0  0  0  0  0  0  0  0  0  0  0
   49.7600   52.3510   17.4900 N   0  0  0  0  0  0  0  0  0  0  0  0
   50.7310   52.4250   17.7570 H   0  0  0  0  0  0  0  0  0  0  0  0
   49.6890   52.3310   16.4830 H   0  0  0  0  0  0  0  0  0  0  0  0
  1 14  1  0  0  0  0
  2  1  2  0  0  0  0
  3  4  2  0  0  0  0
  3  2  1  0  0  0  0
  4  5  1  0  0  0  0
  5  6  1  0  0  0  0
  5 14  2  0  0  0  0
  6 11  1  0  0  0  0
  7 10  2  0  0  0  0
  7  6  1  0  0  0  0
  8  7  1  0  0  0  0
  9  8  2  0  0  0  0
 12  8  1  0  0  0  0
 12  4  1  0  0  0  0
 13 12  1  0  0  0  0
 15  1  1  6  0  0  0
 15 16  1  0  0  0  0
 16 17  1  1  0  0  0
 16 20  1  0  0  0  0
 17 18  1  0  0  0  0
 18 19  1  0  0  0  0
 20 19  1  0  0  0  0
 22 23  1  0  0  0  0
 22 21  1  0  0  0  0
 22 15  1  0  0  0  0
 24 22  1  0  0  0  0
M  END
>  <MODEL>
7

>  <REMARK>
  Name = ZINC35487763
                            x       y       z     vdW  Elec       q    Type
                         _______ _______ _______ _____ _____    ______ ____

>  <TORSDO>
F 3

>  <minimizedAffinity>
-7.2226872108785392

$$$$
ZINC35487763
 OpenBabel10211216223D

 24 26  0  0  1  0  0  0  0  0999 V2000
   49.9800   54.1740   19.2120 C   0  0  0  0  0  0  0  0  0  0  0  0
   49.1840   54.0300   18.0880 C   0  0  0  0  0  0  0  0  0  0  0  0
   48.8640   52.7730   17.6190 C   0  0  0  0  0  0  0  0  0  0  0  0
   49.3400   51.6430   18.2760 C   0  0  0  0  0  0  0  0  0  0  0  0
   50.1410   51.7890   19.4090 C   0  0  0  0  0  0  0  0  0  0  0  0
   50.6270   50.6700   20.0810 N   0  0  0  0  0  0  0  0  0  0  0  0
   50.3250   49.4320   19.6390 C   0  0  0  0  0  0  0  0  0  0  0  0
   49.4690   49.2770   18.4280 C   0  0  0  0  0  0  0  0  0  0  0  0
   49.1850   48.1710   18.0150 O   0  0  0  0  0  0  0  0  0  0  0  0
   50.7460   48.4530   20.2220 O   0  0  0  0  0  0  0  0  0  0  0  0
   51.1830   50.7810   20.8680 H   0  0  0  0  0  0  0  0  0  0  0  0
   49.0110   50.3780   17.7980 N   0  0  0  0  0  0  0  0  0  0  0  0
   48.4530   50.2880   17.0080 H   0  0  0  0  0  0  0  0  0  0  0  0
   50.4630   53.0610   19.8680 C   0  0  0  0  0  0  0  0  0  0  0  0
   50.3240   55.5510   19.7170 C   0  0  1  0  0  0  0  0  0  0  0  0
   49.2080   56.0520   20.6360 C   0  0  2  0  0  0  0  0  0  0  0  0
   48.3260   57.0700   19.8800 C   0  0  0  0  0  0  0  0  0  0  0  0
   48.0310   58.1290   20.9780 C   0  0  0  0  0  0  0  0  0  0  0  0
   49.3580   58.0990   21.7770 C   0  0  0  0  0  0  0  0  0  0  0  0
   49.7730   56.7220   21.7680 O   0  0  0  0  0  0  0  0  0  0  0  0
   52.5460   56.4430   19.8830 C   0  0  0  0  0  0  0  0  0  0  0  0
   51.5870   55.4960   20.4670 N   0  0  0  0  0  0  0  0  0  0  0  0
   51.4170   55.7430   21.4310 H   0  0  0  0  0  0  0  0  0  0  0  0
   51.9660   54.5620   20.4200 H   0  0  0  0  0  0  0  0  0  0  0  0
  1 14  2  0  0  0  0
  2  1  1  0  0  0  0
  3  2  2  0  0  0  0
  3  4  1  0  0  0  0
  4  5  2  0  0  0  0
  5 14  1  0  0  0  0
  5  6  1  0  0  0  0
  6 11  1  0  0  0  0
  7  6  1  0  0  0  0
  7 10  2  0  0  0  0
  8  7  1  0  0  0  0
  9  8  2  0  0  0  0
 12  4  1  0  0  0  0
 12  8  1  0  0  0  0
 13 12  1  0  0  0  0
 15  1  1  1  0  0  0
 15 22  1  0  0  0  0
 15 16  1  0  0  0  0
 16 17  1  6  0  0  0
 16 20  1  0  0  0  0
 17 18  1  0  0  0  0
 18 19  1  0  0  0  0
 20 19  1  0  0  0  0
 21 22  1  0  0  0  0
 22 23  1  0  0  0  0
 24 22  1  0  0  0  0
M  END
>  <MODEL>
8

>  <REMARK>
  Name = ZINC35487763
                            x       y       z     vdW  Elec       q    Type
                         _______ _______ _______ _____ _____    ______ ____

>  <TORSDO>
F 3

>  <minimizedAffinity>
-7.1248973146492451

$$$$
ZINC35487763
 OpenBabel10211216223D

 24 26  0  0  1  0  0  0  0  0999 V2000
   46.3390   48.2310   17.0710 C   0  0  0  0  0  0  0  0  0  0  0  0
   47.4320   47.3860   17.1630 C   0  0  0  0  0  0  0  0  0  0  0  0
   48.6970   47.9020   17.3580 C   0  0  0  0  0  0  0  0  0  0  0  0
   48.8780   49.2770   17.4640 C   0  0  0  0  0  0  0  0  0  0  0  0
   47.7760   50.1280   17.3720 C   0  0  0  0  0  0  0  0  0  0  0  0
   47.9370   51.5080   17.4760 N   0  0  0  0  0  0  0  0  0  0  0  0
   49.1640   52.0330   17.6680 C   0  0  0  0  0  0  0  0  0  0  0  0
   50.3410   51.1220   17.7650 C   0  0  0  0  0  0  0  0  0  0  0  0
   51.4540   51.5750   17.9380 O   0  0  0  0  0  0  0  0  0  0  0  0
   49.3090   53.2350   17.7600 O   0  0  0  0  0  0  0  0  0  0  0  0
   47.1650   52.0910   17.4120 H   0  0  0  0  0  0  0  0  0  0  0  0
   50.1560   49.7900   17.6620 N   0  0  0  0  0  0  0  0  0  0  0  0
   50.9160   49.1890   17.7240 H   0  0  0  0  0  0  0  0  0  0  0  0
   46.5070   49.5960   17.1690 C   0  0  0  0  0  0  0  0  0  0  0  0
   44.9620   47.6580   16.8590 C   0  0  1  0  0  0  0  0  0  0  0  0
   44.8900   47.0020   15.4780 C   0  0  2  0  0  0  0  0  0  0  0  0
   45.1200   48.0640   14.3820 C   0  0  0  0  0  0  0  0  0  0  0  0
   44.1050   47.6330   13.2870 C   0  0  0  0  0  0  0  0  0  0  0  0
   42.9480   47.0860   14.1590 C   0  0  0  0  0  0  0  0  0  0  0  0
   43.5880   46.4410   15.2740 O   0  0  0  0  0  0  0  0  0  0  0  0
   44.4610   47.3220   19.1810 C   0  0  0  0  0  0  0  0  0  0  0  0
   44.6850   46.6520   17.8930 N   0  0  0  0  0  0  0  0  0  0  0  0
   43.8610   46.1270   17.6400 H   0  0  0  0  0  0  0  0  0  0  0  0
   45.4720   46.0250   17.9730 H   0  0  0  0  0  0  0  0  0  0  0  0
  1  2  2  0  0  0  0
  1 14  1  0  0  0  0
  2  3  1  0  0  0  0
  3  4  2  0  0  0  0
  4 12  1  0  0  0  0
  5  4  1  0  0  0  0
  5  6  1  0  0  0  0
  6  7  1  0  0  0  0
  7 10  2  0  0  0  0
  7  8  1  0  0  0  0
  8  9  2  0  0  0  0
 11  6  1  0  0  0  0
 12 13  1  0  0  0  0
 12  8  1  0  0  0  0
 14  5  2  0  0  0  0
 15  1  1  6  0  0  0
 15 22  1  0  0  0  0
 16 17  1  1  0  0  0
 16 15  1  0  0  0  0
 18 19  1  0  0  0  0
 18 17  1  0  0  0  0
 19 20  1  0  0  0  0
 20 16  1  0  0  0  0
 22 24  1  0  0  0  0
 22 21  1  0  0  0  0
 23 22  1  0  0  0  0
M  END
>  <MODEL>
9

>  <REMARK>
  Name = ZINC35487763
                            x       y       z     vdW  Elec       q    Type
                         _______ _______ _______ _____ _____    ______ ____

>  <TORSDO>
F 3

>  <minimizedAffinity>
-7.0323198840954113

$$$$
ZINC62811490
 OpenBabel10211216223D

 21 23  0  0  1  0  0  0  0  0999 V2000
   50.3070   52.4880   19.0920 C   0  0  0  0  0  0  0  0  0  0  0  0
   50.4240   53.7870   19.4320 N   0  0  0  0  0  0  0  0  0  0  0  0
   51.5860   54.2490   20.2010 C   0  0  0  0  0  0  0  0  0  0  0  0
   51.1250   55.1660   21.3480 C   0  0  0  0  0  0  0  0  0  0  0  0
   50.2680   56.1960   20.7750 N   0  0  2  0  0  0  0  0  0  0  0  0
   50.7420   56.6500   20.0090 H   0  0  0  0  0  0  0  0  0  0  0  0
   49.7780   57.2000   21.7340 C   0  0  0  0  0  0  0  0  0  0  0  0
   48.5470   57.8150   21.0180 C   0  0  0  0  0  0  0  0  0  0  0  0
   48.0760   56.7240   20.0250 C   0  0  0  0  0  0  0  0  0  0  0  0
   49.0230   55.5460   20.2860 C   0  0  1  0  0  0  0  0  0  0  0  0
   49.3870   54.7590   19.0270 C   0  0  0  0  0  0  0  0  0  0  0  0
   49.3760   52.1220   18.3990 O   0  0  0  0  0  0  0  0  0  0  0  0
   52.9150   49.9960   19.6160 C   0  0  0  0  0  0  0  0  0  0  0  0
   52.1880   50.7520   18.7500 C   0  0  0  0  0  0  0  0  0  0  0  0
   51.3060   51.5100   19.5610 C   0  0  0  0  0  0  0  0  0  0  0  0
   51.5480   51.1770   20.8150 N   0  0  0  0  0  0  0  0  0  0  0  0
   52.4820   50.2960   20.8680 N   0  0  0  0  0  0  0  0  0  0  0  0
   52.8280   49.9030   21.6840 H   0  0  0  0  0  0  0  0  0  0  0  0
   52.2890   50.7750   17.3520 N   0  0  0  0  0  0  0  0  0  0  0  0
   53.0190   51.2520   16.9260 H   0  0  0  0  0  0  0  0  0  0  0  0
   51.6300   50.3140   16.8090 H   0  0  0  0  0  0  0  0  0  0  0  0
  1  2  1  0  0  0  0
  1 15  1  0  0  0  0
  2  3  1  0  0  0  0
  3  4  1  0  0  0  0
  5  6  1  6  0  0  0
  5  4  1  0  0  0  0
  5  7  1  0  0  0  0
  8  7  1  0  0  0  0
  9 10  1  0  0  0  0
  9  8  1  0  0  0  0
 10 11  1  6  0  0  0
 10  5  1  0  0  0  0
 11  2  1  0  0  0  0
 12  1  2  0  0  0  0
 13 17  1  0  0  0  0
 14 15  1  0  0  0  0
 14 13  2  0  0  0  0
 15 16  2  0  0  0  0
 16 17  1  0  0  0  0
 17 18  1  0  0  0  0
 19 14  1  0  0  0  0
 20 19  1  0  0  0  0
 21 19  1  0  0  0  0
M  END
>  <MODEL>
1

>  <REMARK>
  Name = ZINC62811490
                            x       y       z     vdW  Elec       q    Type
                         _______ _______ _______ _____ _____    ______ ____

>  <TORSDO>
F 2

>  <minimizedAffinity>
-7.0295188345652297

$$$$
ZINC62811490
 OpenBabel10211216223D

 21 23  0  0  1  0  0  0  0  0999 V2000
   51.6930   55.8150   19.6900 C   0  0  0  0  0  0  0  0  0  0  0  0
   51.2000   54.6720   20.2050 N   0  0  0  0  0  0  0  0  0  0  0  0
   51.3880   54.3590   21.6270 C   0  0  0  0  0  0  0  0  0  0  0  0
   51.8470   52.8990   21.7870 C   0  0  0  0  0  0  0  0  0  0  0  0
   50.9120   52.0580   21.0510 N   0  0  2  0  0  0  0  0  0  0  0  0
   49.9670   52.2590   21.3410 H   0  0  0  0  0  0  0  0  0  0  0  0
   51.1730   50.6110   21.1430 C   0  0  0  0  0  0  0  0  0  0  0  0
   50.4160   50.0280   19.9210 C   0  0  0  0  0  0  0  0  0  0  0  0
   50.3130   51.2020   18.9160 C   0  0  0  0  0  0  0  0  0  0  0  0
   51.0690   52.3470   19.6000 C   0  0  1  0  0  0  0  0  0  0  0  0
   50.4590   53.7260   19.3450 C   0  0  0  0  0  0  0  0  0  0  0  0
   51.4780   56.1010   18.5270 O   0  0  0  0  0  0  0  0  0  0  0  0
   53.0930   58.2480   22.0150 C   0  0  0  0  0  0  0  0  0  0  0  0
   51.9940   57.6450   21.4890 C   0  0  0  0  0  0  0  0  0  0  0  0
   52.4930   56.7200   20.5350 C   0  0  0  0  0  0  0  0  0  0  0  0
   53.8090   56.8220   20.5480 N   0  0  0  0  0  0  0  0  0  0  0  0
   54.1780   57.7070   21.4030 N   0  0  0  0  0  0  0  0  0  0  0  0
   55.0980   57.9510   21.5850 H   0  0  0  0  0  0  0  0  0  0  0  0
   50.6530   57.8860   21.8180 N   0  0  0  0  0  0  0  0  0  0  0  0
   50.1330   58.5200   21.3000 H   0  0  0  0  0  0  0  0  0  0  0  0
   50.2440   57.4180   22.5630 H   0  0  0  0  0  0  0  0  0  0  0  0
  1  2  1  0  0  0  0
  1 15  1  0  0  0  0
  2  3  1  0  0  0  0
  3  4  1  0  0  0  0
  5  7  1  0  0  0  0
  5  6  1  1  0  0  0
  5  4  1  0  0  0  0
  8  7  1  0  0  0  0
  9  8  1  0  0  0  0
 10  9  1  1  0  0  0
 10  5  1  0  0  0  0
 11 10  1  0  0  0  0
 11  2  1  0  0  0  0
 12  1  2  0  0  0  0
 14 19  1  0  0  0  0
 14 13  2  0  0  0  0
 15 16  2  0  0  0  0
 15 14  1  0  0  0  0
 16 17  1  0  0  0  0
 17 18  1  0  0  0  0
 17 13  1  0  0  0  0
 19 21  1  0  0  0  0
 20 19  1  0  0  0  0
M  END
>  <MODEL>
2

>  <REMARK>
  Name = ZINC62811490
                            x       y       z     vdW  Elec       q    Type
                         _______ _______ _______ _____ _____    ______ ____

>  <TORSDO>
F 2

>  <minimizedAffinity>
-6.7173876025327095

$$$$
ZINC62811490
 OpenBabel10211216223D

 21 23  0  0  1  0  0  0  0  0999 V2000
   51.8810   51.8770   19.0580 C   0  0  0  0  0  0  0  0  0  0  0  0
   52.1370   52.8120   19.9940 N   0  0  0  0  0  0  0  0  0  0  0  0
   51.8520   52.5410   21.4090 C   0  0  0  0  0  0  0  0  0  0  0  0
   51.1240   53.7430   22.0360 C   0  0  0  0  0  0  0  0  0  0  0  0
   51.9070   54.9370   21.7440 N   0  0  2  0  0  0  0  0  0  0  0  0
   52.8640   54.8000   22.0320 H   0  0  0  0  0  0  0  0  0  0  0  0
   51.3780   56.1840   22.3230 C   0  0  0  0  0  0  0  0  0  0  0  0
   52.0490   57.2930   21.4710 C   0  0  0  0  0  0  0  0  0  0  0  0
   52.3980   56.6070   20.1260 C   0  0  0  0  0  0  0  0  0  0  0  0
   51.8500   55.1830   20.2780 C   0  0  1  0  0  0  0  0  0  0  0  0
   52.7130   54.1160   19.6050 C   0  0  0  0  0  0  0  0  0  0  0  0
   52.1790   52.0810   17.8970 O   0  0  0  0  0  0  0  0  0  0  0  0
   50.9010   48.5390   20.1480 C   0  0  0  0  0  0  0  0  0  0  0  0
   51.8910   49.4460   19.9330 C   0  0  0  0  0  0  0  0  0  0  0  0
   51.2390   50.6060   19.4420 C   0  0  0  0  0  0  0  0  0  0  0  0
   49.9480   50.3340   19.3940 N   0  0  0  0  0  0  0  0  0  0  0  0
   49.7320   49.1350   19.8010 N   0  0  0  0  0  0  0  0  0  0  0  0
   48.8580   48.7170   19.8530 H   0  0  0  0  0  0  0  0  0  0  0  0
   53.2650   49.2720   20.1510 N   0  0  0  0  0  0  0  0  0  0  0  0
   53.5780   48.5550   20.7260 H   0  0  0  0  0  0  0  0  0  0  0  0
   53.9040   49.8660   19.7270 H   0  0  0  0  0  0  0  0  0  0  0  0
  1 15  1  0  0  0  0
  1  2  1  0  0  0  0
  2  3  1  0  0  0  0
  3  4  1  0  0  0  0
  5  6  1  1  0  0  0
  5  4  1  0  0  0  0
  5  7  1  0  0  0  0
  8  7  1  0  0  0  0
  9 10  1  0  0  0  0
  9  8  1  0  0  0  0
 10 11  1  1  0  0  0
 10  5  1  0  0  0  0
 11  2  1  0  0  0  0
 12  1  2  0  0  0  0
 14 13  2  0  0  0  0
 14 19  1  0  0  0  0
 15 14  1  0  0  0  0
 16 15  2  0  0  0  0
 16 17  1  0  0  0  0
 17 18  1  0  0  0  0
 17 13  1  0  0  0  0
 19 20  1  0  0  0  0
 21 19  1  0  0  0  0
M  END
>  <MODEL>
3

>  <REMARK>
  Name = ZINC62811490
                            x       y       z     vdW  Elec       q    Type
                         _______ _______ _______ _____ _____    ______ ____

>  <TORSDO>
F 2

>  <minimizedAffinity>
-6.6822153298035589

$$$$
ZINC62811490
 OpenBabel10211216223D

 21 23  0  0  1  0  0  0  0  0999 V2000
   51.5080   54.1390   20.7000 C   0  0  0  0  0  0  0  0  0  0  0  0
   50.3260   54.7510   20.4870 N   0  0  0  0  0  0  0  0  0  0  0  0
   49.4390   54.2920   19.4110 C   0  0  0  0  0  0  0  0  0  0  0  0
   48.9160   55.4990   18.6120 C   0  0  0  0  0  0  0  0  0  0  0  0
   48.3540   56.4500   19.5620 N   0  0  2  0  0  0  0  0  0  0  0  0
   47.6810   55.9860   20.1550 H   0  0  0  0  0  0  0  0  0  0  0  0
   47.7540   57.6510   18.9580 C   0  0  0  0  0  0  0  0  0  0  0  0
   47.7210   58.6680   20.1290 C   0  0  0  0  0  0  0  0  0  0  0  0
   48.8350   58.1990   21.0980 C   0  0  0  0  0  0  0  0  0  0  0  0
   49.4650   56.9940   20.3880 C   0  0  1  0  0  0  0  0  0  0  0  0
   49.9090   55.8830   21.3400 C   0  0  0  0  0  0  0  0  0  0  0  0
   52.2090   54.4800   21.6340 O   0  0  0  0  0  0  0  0  0  0  0  0
   52.5940   51.0930   19.0170 C   0  0  0  0  0  0  0  0  0  0  0  0
   52.2190   51.7130   20.1680 C   0  0  0  0  0  0  0  0  0  0  0  0
   51.9510   53.0580   19.8020 C   0  0  0  0  0  0  0  0  0  0  0  0
   52.1730   53.1570   18.5040 N   0  0  0  0  0  0  0  0  0  0  0  0
   52.5480   52.0250   18.0290 N   0  0  0  0  0  0  0  0  0  0  0  0
   52.7660   51.8590   17.0990 H   0  0  0  0  0  0  0  0  0  0  0  0
   52.1200   51.1440   21.4450 N   0  0  0  0  0  0  0  0  0  0  0  0
   52.6580   51.4910   22.1740 H   0  0  0  0  0  0  0  0  0  0  0  0
   51.5120   50.4040   21.6010 H   0  0  0  0  0  0  0  0  0  0  0  0
  1 12  2  0  0  0  0
  2  1  1  0  0  0  0
  2 11  1  0  0  0  0
  3  2  1  0  0  0  0
  4  3  1  0  0  0  0
  4  5  1  0  0  0  0
  5  6  1  1  0  0  0
  5 10  1  0  0  0  0
  7  5  1  0  0  0  0
  7  8  1  0  0  0  0
  8  9  1  0  0  0  0
 10  9  1  1  0  0  0
 10 11  1  0  0  0  0
 13 14  2  0  0  0  0
 14 19  1  0  0  0  0
 15 14  1  0  0  0  0
 15  1  1  0  0  0  0
 16 15  2  0  0  0  0
 17 16  1  0  0  0  0
 17 13  1  0  0  0  0
 18 17  1  0  0  0  0
 19 21  1  0  0  0  0
 19 20  1  0  0  0  0
M  END
>  <MODEL>
4

>  <REMARK>
  Name = ZINC62811490
                            x       y       z     vdW  Elec       q    Type
                         _______ _______ _______ _____ _____    ______ ____

>  <TORSDO>
F 2

>  <minimizedAffinity>
-6.6585213047876879

$$$$
ZINC62811490
 OpenBabel10211216223D

 21 23  0  0  1  0  0  0  0  0999 V2000
   51.8430   54.4150   21.8320 C   0  0  0  0  0  0  0  0  0  0  0  0
   51.9130   53.3810   20.9700 N   0  0  0  0  0  0  0  0  0  0  0  0
   52.0840   53.6270   19.5320 C   0  0  0  0  0  0  0  0  0  0  0  0
   51.1040   52.7520   18.7310 C   0  0  0  0  0  0  0  0  0  0  0  0
   51.2670   51.3770   19.1820 N   0  0  2  0  0  0  0  0  0  0  0  0
   52.2400   51.1110   19.1330 H   0  0  0  0  0  0  0  0  0  0  0  0
   50.4360   50.3880   18.4740 C   0  0  0  0  0  0  0  0  0  0  0  0
   50.4060   49.1780   19.4450 C   0  0  0  0  0  0  0  0  0  0  0  0
   50.6850   49.7810   20.8450 C   0  0  0  0  0  0  0  0  0  0  0  0
   50.7890   51.2890   20.5880 C   0  0  1  0  0  0  0  0  0  0  0  0
   51.8270   51.9920   21.4640 C   0  0  0  0  0  0  0  0  0  0  0  0
   51.7670   54.2050   23.0280 O   0  0  0  0  0  0  0  0  0  0  0  0
   51.2300   57.7570   20.5110 C   0  0  0  0  0  0  0  0  0  0  0  0
   50.7350   56.5440   20.8760 C   0  0  0  0  0  0  0  0  0  0  0  0
   51.8560   55.7990   21.3260 C   0  0  0  0  0  0  0  0  0  0  0  0
   52.9130   56.5810   21.2090 N   0  0  0  0  0  0  0  0  0  0  0  0
   52.5690   57.7250   20.7360 N   0  0  0  0  0  0  0  0  0  0  0  0
   53.1780   58.4600   20.5640 H   0  0  0  0  0  0  0  0  0  0  0  0
   49.4000   56.1190   20.8180 N   0  0  0  0  0  0  0  0  0  0  0  0
   48.9560   55.8030   21.6210 H   0  0  0  0  0  0  0  0  0  0  0  0
   48.9190   56.1410   19.9760 H   0  0  0  0  0  0  0  0  0  0  0  0
  1 12  2  0  0  0  0
  2 11  1  0  0  0  0
  2  1  1  0  0  0  0
  3  2  1  0  0  0  0
  4  5  1  0  0  0  0
  4  3  1  0  0  0  0
  5  6  1  6  0  0  0
  5 10  1  0  0  0  0
  7  5  1  0  0  0  0
  7  8  1  0  0  0  0
  8  9  1  0  0  0  0
 10  9  1  6  0  0  0
 10 11  1  0  0  0  0
 13 17  1  0  0  0  0
 13 14  2  0  0  0  0
 14 15  1  0  0  0  0
 15  1  1  0  0  0  0
 16 15  2  0  0  0  0
 17 16  1  0  0  0  0
 18 17  1  0  0  0  0
 19 14  1  0  0  0  0
 19 20  1  0  0  0  0
 21 19  1  0  0  0  0
M  END
>  <MODEL>
5

>  <REMARK>
  Name = ZINC62811490
                            x       y       z     vdW  Elec       q    Type
                         _______ _______ _______ _____ _____    ______ ____

>  <TORSDO>
F 2

>  <minimizedAffinity>
-6.6493786057772404

$$$$
ZINC62811490
 OpenBabel10211216223D

 21 23  0  0  1  0  0  0  0  0999 V2000
   49.3470   51.6140   17.0670 C   0  0  0  0  0  0  0  0  0  0  0  0
   50.2640   51.9380   18.0000 N   0  0  0  0  0  0  0  0  0  0  0  0
   51.2260   50.9330   18.4700 C   0  0  0  0  0  0  0  0  0  0  0  0
   51.3150   50.9720   20.0060 C   0  0  0  0  0  0  0  0  0  0  0  0
   51.5640   52.3520   20.4010 N   0  0  2  0  0  0  0  0  0  0  0  0
   52.3640   52.7130   19.9030 H   0  0  0  0  0  0  0  0  0  0  0  0
   51.7330   52.5630   21.8490 C   0  0  0  0  0  0  0  0  0  0  0  0
   51.4650   54.0800   22.0280 C   0  0  0  0  0  0  0  0  0  0  0  0
   50.5830   54.4760   20.8180 C   0  0  0  0  0  0  0  0  0  0  0  0
   50.3570   53.1560   20.0710 C   0  0  1  0  0  0  0  0  0  0  0  0
   50.3150   53.3080   18.5510 C   0  0  0  0  0  0  0  0  0  0  0  0
   48.5950   52.4660   16.6320 O   0  0  0  0  0  0  0  0  0  0  0  0
   48.7140   48.0950   16.3560 C   0  0  0  0  0  0  0  0  0  0  0  0
   48.4930   49.1770   17.1500 C   0  0  0  0  0  0  0  0  0  0  0  0
   49.2530   50.2280   16.5740 C   0  0  0  0  0  0  0  0  0  0  0  0
   49.8590   49.7310   15.5110 N   0  0  0  0  0  0  0  0  0  0  0  0
   49.5580   48.4910   15.3680 N   0  0  0  0  0  0  0  0  0  0  0  0
   49.8860   47.9190   14.6570 H   0  0  0  0  0  0  0  0  0  0  0  0
   47.6870   49.2410   18.2950 N   0  0  0  0  0  0  0  0  0  0  0  0
   46.7380   49.4260   18.2100 H   0  0  0  0  0  0  0  0  0  0  0  0
   48.0760   49.0990   19.1720 H   0  0  0  0  0  0  0  0  0  0  0  0
  1  2  1  0  0  0  0
  2  3  1  0  0  0  0
  2 11  1  0  0  0  0
  3  4  1  0  0  0  0
  4  5  1  0  0  0  0
  5  6  1  6  0  0  0
  5  7  1  0  0  0  0
  7  8  1  0  0  0  0
  9  8  1  0  0  0  0
 10 11  1  6  0  0  0
 10  5  1  0  0  0  0
 10  9  1  0  0  0  0
 12  1  2  0  0  0  0
 13 14  2  0  0  0  0
 14 19  1  0  0  0  0
 15  1  1  0  0  0  0
 15 14  1  0  0  0  0
 16 15  2  0  0  0  0
 17 16  1  0  0  0  0
 17 13  1  0  0  0  0
 18 17  1  0  0  0  0
 19 21  1  0  0  0  0
 20 19  1  0  0  0  0
M  END
>  <MODEL>
6

>  <REMARK>
  Name = ZINC62811490
                            x       y       z     vdW  Elec       q    Type
                         _______ _______ _______ _____ _____    ______ ____

>  <TORSDO>
F 2

>  <minimizedAffinity>
-6.4892276670381568

$$$$
ZINC62811490
 OpenBabel10211216223D

 21 23  0  0  1  0  0  0  0  0999 V2000
   50.7580   51.1430   19.6910 C   0  0  0  0  0  0  0  0  0  0  0  0
   50.5390   52.4220   20.0530 N   0  0  0  0  0  0  0  0  0  0  0  0
   50.1870   53.4270   19.0420 C   0  0  0  0  0  0  0  0  0  0  0  0
   51.0220   54.7020   19.2580 C   0  0  0  0  0  0  0  0  0  0  0  0
   50.8740   55.0980   20.6520 N   0  0  2  0  0  0  0  0  0  0  0  0
   49.8950   55.1640   20.8890 H   0  0  0  0  0  0  0  0  0  0  0  0
   51.5700   56.3420   21.0210 C   0  0  0  0  0  0  0  0  0  0  0  0
   51.6880   56.2470   22.5650 C   0  0  0  0  0  0  0  0  0  0  0  0
   51.6180   54.7310   22.8790 C   0  0  0  0  0  0  0  0  0  0  0  0
   51.5310   54.0670   21.5000 C   0  0  1  0  0  0  0  0  0  0  0  0
   50.6430   52.8230   21.4710 C   0  0  0  0  0  0  0  0  0  0  0  0
   50.9850   50.3010   20.5400 O   0  0  0  0  0  0  0  0  0  0  0  0
   50.0420   50.0820   16.2780 C   0  0  0  0  0  0  0  0  0  0  0  0
   49.5940   50.3050   17.5420 C   0  0  0  0  0  0  0  0  0  0  0  0
   50.7250   50.7620   18.2670 C   0  0  0  0  0  0  0  0  0  0  0  0
   51.7410   50.7850   17.4250 N   0  0  0  0  0  0  0  0  0  0  0  0
   51.3640   50.3920   16.2620 N   0  0  0  0  0  0  0  0  0  0  0  0
   51.9400   50.3270   15.4850 H   0  0  0  0  0  0  0  0  0  0  0  0
   48.2910   50.1210   18.0270 N   0  0  0  0  0  0  0  0  0  0  0  0
   48.1460   49.9260   18.9660 H   0  0  0  0  0  0  0  0  0  0  0  0
   47.5340   50.1890   17.4240 H   0  0  0  0  0  0  0  0  0  0  0  0
  1  2  1  0  0  0  0
  1 12  2  0  0  0  0
  2 11  1  0  0  0  0
  3  4  1  0  0  0  0
  3  2  1  0  0  0  0
  4  5  1  0  0  0  0
  5  6  1  1  0  0  0
  5  7  1  0  0  0  0
  5 10  1  0  0  0  0
  7  8  1  0  0  0  0
  8  9  1  0  0  0  0
 10 11  1  1  0  0  0
 10  9  1  0  0  0  0
 13 14  2  0  0  0  0
 14 19  1  0  0  0  0
 14 15  1  0  0  0  0
 15  1  1  0  0  0  0
 16 15  2  0  0  0  0
 17 13  1  0  0  0  0
 17 16  1  0  0  0  0
 18 17  1  0  0  0  0
 19 20  1  0  0  0  0
 21 19  1  0  0  0  0
M  END
>  <MODEL>
7

>  <REMARK>
  Name = ZINC62811490
                            x       y       z     vdW  Elec       q    Type
                         _______ _______ _______ _____ _____    ______ ____

>  <TORSDO>
F 2

>  <minimizedAffinity>
-6.4467716044176786

$$$$
ZINC62811490
 OpenBabel10211216223D

 21 23  0  0  1  0  0  0  0  0999 V2000
   49.5640   50.3400   16.4600 C   0  0  0  0  0  0  0  0  0  0  0  0
   48.2490   50.1240   16.2600 N   0  0  0  0  0  0  0  0  0  0  0  0
   47.2760   50.4610   17.3060 C   0  0  0  0  0  0  0  0  0  0  0  0
   46.2780   49.3030   17.4860 C   0  0  0  0  0  0  0  0  0  0  0  0
   45.7390   48.9750   16.1730 N   0  0  2  0  0  0  0  0  0  0  0  0
   45.3770   49.8070   15.7320 H   0  0  0  0  0  0  0  0  0  0  0  0
   44.7180   47.9140   16.1680 C   0  0  0  0  0  0  0  0  0  0  0  0
   44.7100   47.4240   14.6960 C   0  0  0  0  0  0  0  0  0  0  0  0
   46.1100   47.7920   14.1450 C   0  0  0  0  0  0  0  0  0  0  0  0
   46.8380   48.4030   15.3490 C   0  0  1  0  0  0  0  0  0  0  0  0
   47.7750   49.5540   14.9820 C   0  0  0  0  0  0  0  0  0  0  0  0
   50.3600   50.1210   15.5660 O   0  0  0  0  0  0  0  0  0  0  0  0
   50.7130   50.9510   19.8660 C   0  0  0  0  0  0  0  0  0  0  0  0
   50.2970   50.0640   18.9220 C   0  0  0  0  0  0  0  0  0  0  0  0
   50.0390   50.8410   17.7630 C   0  0  0  0  0  0  0  0  0  0  0  0
   50.3070   52.0960   18.0700 N   0  0  0  0  0  0  0  0  0  0  0  0
   50.7000   52.1810   19.2900 N   0  0  0  0  0  0  0  0  0  0  0  0
   50.9530   53.0050   19.7350 H   0  0  0  0  0  0  0  0  0  0  0  0
   50.1520   48.6770   19.0650 N   0  0  0  0  0  0  0  0  0  0  0  0
   49.5130   48.3190   19.7010 H   0  0  0  0  0  0  0  0  0  0  0  0
   50.6890   48.0740   18.5280 H   0  0  0  0  0  0  0  0  0  0  0  0
  1 15  1  0  0  0  0
  2  1  1  0  0  0  0
  2  3  1  0  0  0  0
  3  4  1  0  0  0  0
  5  6  1  6  0  0  0
  5  4  1  0  0  0  0
  7  5  1  0  0  0  0
  8  7  1  0  0  0  0
  9  8  1  0  0  0  0
 10  9  1  6  0  0  0
 10  5  1  0  0  0  0
 11 10  1  0  0  0  0
 11  2  1  0  0  0  0
 12  1  2  0  0  0  0
 14 19  1  0  0  0  0
 14 13  2  0  0  0  0
 15 16  2  0  0  0  0
 15 14  1  0  0  0  0
 16 17  1  0  0  0  0
 17 18  1  0  0  0  0
 17 13  1  0  0  0  0
 19 20  1  0  0  0  0
 21 19  1  0  0  0  0
M  END
>  <MODEL>
8

>  <REMARK>
  Name = ZINC62811490
                            x       y       z     vdW  Elec       q    Type
                         _______ _______ _______ _____ _____    ______ ____

>  <TORSDO>
F 2

>  <minimizedAffinity>
-6.3692410346095203

$$$$
ZINC62811490
 OpenBabel10211216223D

 21 23  0  0  1  0  0  0  0  0999 V2000
   51.7100   51.0040   18.1310 C   0  0  0  0  0  0  0  0  0  0  0  0
   50.4870   50.9210   17.5720 N   0  0  0  0  0  0  0  0  0  0  0  0
   49.2850   51.1380   18.3880 C   0  0  0  0  0  0  0  0  0  0  0  0
   48.2470   50.0420   18.0930 C   0  0  0  0  0  0  0  0  0  0  0  0
   48.0560   49.9880   16.6490 N   0  0  2  0  0  0  0  0  0  0  0  0
   47.8400   50.9080   16.2960 H   0  0  0  0  0  0  0  0  0  0  0  0
   47.0450   49.0200   16.1920 C   0  0  0  0  0  0  0  0  0  0  0  0
   47.4050   48.7980   14.6990 C   0  0  0  0  0  0  0  0  0  0  0  0
   48.9090   49.1550   14.5930 C   0  0  0  0  0  0  0  0  0  0  0  0
   49.3160   49.4920   16.0320 C   0  0  1  0  0  0  0  0  0  0  0  0
   50.3440   50.6190   16.1330 C   0  0  0  0  0  0  0  0  0  0  0  0
   52.7040   50.8880   17.4380 O   0  0  0  0  0  0  0  0  0  0  0  0
   52.0030   52.2050   21.5600 C   0  0  0  0  0  0  0  0  0  0  0  0
   51.8610   52.4910   20.2380 C   0  0  0  0  0  0  0  0  0  0  0  0
   51.8460   51.2340   19.5810 C   0  0  0  0  0  0  0  0  0  0  0  0
   51.9730   50.3070   20.5130 N   0  0  0  0  0  0  0  0  0  0  0  0
   52.0660   50.8530   21.6720 N   0  0  0  0  0  0  0  0  0  0  0  0
   52.1670   50.3690   22.5060 H   0  0  0  0  0  0  0  0  0  0  0  0
   51.7540   53.7590   19.6500 N   0  0  0  0  0  0  0  0  0  0  0  0
   52.4880   54.3900   19.7200 H   0  0  0  0  0  0  0  0  0  0  0  0
   50.9470   54.0060   19.1710 H   0  0  0  0  0  0  0  0  0  0  0  0
  1 15  1  0  0  0  0
  2  1  1  0  0  0  0
  2  3  1  0  0  0  0
  4  3  1  0  0  0  0
  5  6  1  6  0  0  0
  5  4  1  0  0  0  0
  7  5  1  0  0  0  0
  8  7  1  0  0  0  0
  9  8  1  0  0  0  0
 10  9  1  6  0  0  0
 10 11  1  0  0  0  0
 10  5  1  0  0  0  0
 11  2  1  0  0  0  0
 12  1  2  0  0  0  0
 13 17  1  0  0  0  0
 14 13  2  0  0  0  0
 15 14  1  0  0  0  0
 15 16  2  0  0  0  0
 16 17  1  0  0  0  0
 17 18  1  0  0  0  0
 19 20  1  0  0  0  0
 19 14  1  0  0  0  0
 21 19  1  0  0  0  0
M  END
>  <MODEL>
9

>  <REMARK>
  Name = ZINC62811490
                            x       y       z     vdW  Elec       q    Type
                         _______ _______ _______ _____ _____    ______ ____

>  <TORSDO>
F 2

>  <minimizedAffinity>
-6.2948236250337928

$$$$
ZINC45284573
 OpenBabel10211216243D

 30 33  0  0  0  0  0  0  0  0999 V2000
   50.5200   51.3450   19.4840 C   0  0  0  0  0  0  0  0  0  0  0  0
   49.5910   51.6360   18.4990 C   0  0  0  0  0  0  0  0  0  0  0  0
   48.8490   50.5910   17.9670 C   0  0  0  0  0  0  0  0  0  0  0  0
   49.0600   49.2820   18.4390 C   0  0  0  0  0  0  0  0  0  0  0  0
   49.9670   49.0570   19.3890 N   0  0  0  0  0  0  0  0  0  0  0  0
   48.2190   48.4750   17.7590 N   0  0  0  0  0  0  0  0  0  0  0  0
   47.5110   49.1840   16.9110 C   0  0  0  0  0  0  0  0  0  0  0  0
   47.8650   50.5020   17.0010 N   0  0  0  0  0  0  0  0  0  0  0  0
   47.4950   51.2350   16.4870 H   0  0  0  0  0  0  0  0  0  0  0  0
   50.6830   50.0340   19.9010 C   0  0  0  0  0  0  0  0  0  0  0  0
   51.5340   55.1380   21.1190 N   0  0  0  0  0  0  0  0  0  0  0  0
   51.5750   53.9940   22.0390 C   0  0  0  0  0  0  0  0  0  0  0  0
   50.7640   52.8370   21.4530 C   0  0  0  0  0  0  0  0  0  0  0  0
   51.3510   52.4450   20.0940 C   0  0  0  0  0  0  0  0  0  0  0  0
   51.3400   53.6660   19.1700 C   0  0  0  0  0  0  0  0  0  0  0  0
   52.1350   54.8000   19.8230 C   0  0  0  0  0  0  0  0  0  0  0  0
   52.1850   56.3140   21.7110 C   0  0  0  0  0  0  0  0  0  0  0  0
   51.3930   57.5720   21.3490 C   0  0  0  0  0  0  0  0  0  0  0  0
   48.9980   57.5920   21.4720 C   0  0  0  0  0  0  0  0  0  0  0  0
   50.2400   57.7000   22.2500 N   0  0  0  0  0  0  0  0  0  0  0  0
   50.2690   56.9650   22.9400 H   0  0  0  0  0  0  0  0  0  0  0  0
   50.2710   58.5970   22.7110 H   0  0  0  0  0  0  0  0  0  0  0  0
   46.4860   48.6400   15.9970 C   0  0  0  0  0  0  0  0  0  0  0  0
   46.7980   48.3670   14.6610 C   0  0  0  0  0  0  0  0  0  0  0  0
   45.8030   47.8580   13.8450 C   0  0  0  0  0  0  0  0  0  0  0  0
   44.5420   47.6360   14.3680 C   0  0  0  0  0  0  0  0  0  0  0  0
   44.2710   47.9000   15.6310 N   0  0  0  0  0  0  0  0  0  0  0  0
   45.1860   48.3820   16.4540 C   0  0  0  0  0  0  0  0  0  0  0  0
   44.8640   48.6340   17.7460 O   0  0  0  0  0  0  0  0  0  0  0  0
   44.7110   47.5050   18.6090 C   0  0  0  0  0  0  0  0  0  0  0  0
  1 10  1  0  0  0  0
  1 14  1  0  0  0  0
  2  1  2  0  0  0  0
  3  4  2  0  0  0  0
  3  2  1  0  0  0  0
  4  5  1  0  0  0  0
  5 10  2  0  0  0  0
  6  4  1  0  0  0  0
  7  8  1  0  0  0  0
  7  6  2  0  0  0  0
  8  3  1  0  0  0  0
  9  8  1  0  0  0  0
 11 17  1  0  0  0  0
 11 12  1  0  0  0  0
 13 12  1  0  0  0  0
 14 13  1  0  0  0  0
 15 16  1  0  0  0  0
 15 14  1  0  0  0  0
 16 11  1  0  0  0  0
 18 17  1  0  0  0  0
 18 20  1  0  0  0  0
 19 20  1  0  0  0  0
 20 22  1  0  0  0  0
 20 21  1  0  0  0  0
 23 28  1  0  0  0  0
 23  7  1  0  0  0  0
 24 23  2  0  0  0  0
 25 26  2  0  0  0  0
 25 24  1  0  0  0  0
 26 27  1  0  0  0  0
 27 28  2  0  0  0  0
 28 29  1  0  0  0  0
 29 30  1  0  0  0  0
M  END
>  <MODEL>
1

>  <REMARK>
  Name = ZINC45284573
                            x       y       z     vdW  Elec       q    Type
                         _______ _______ _______ _____ _____    ______ ____

>  <TORSDO>
F 6

>  <minimizedAffinity>
-9.0339969774558355

$$$$
ZINC45284573
 OpenBabel10211216243D

 30 33  0  0  0  0  0  0  0  0999 V2000
   50.4250   51.2520   17.8810 C   0  0  0  0  0  0  0  0  0  0  0  0
   49.9350   52.4460   18.3840 C   0  0  0  0  0  0  0  0  0  0  0  0
   50.8410   53.3600   18.9040 C   0  0  0  0  0  0  0  0  0  0  0  0
   52.2140   53.0510   18.9020 C   0  0  0  0  0  0  0  0  0  0  0  0
   52.6320   51.8880   18.4050 N   0  0  0  0  0  0  0  0  0  0  0  0
   52.8560   54.0990   19.4570 N   0  0  0  0  0  0  0  0  0  0  0  0
   51.9890   55.0240   19.7960 C   0  0  0  0  0  0  0  0  0  0  0  0
   50.7250   54.6130   19.4740 N   0  0  0  0  0  0  0  0  0  0  0  0
   49.9030   55.1070   19.6180 H   0  0  0  0  0  0  0  0  0  0  0  0
   51.7870   51.0060   17.9140 C   0  0  0  0  0  0  0  0  0  0  0  0
   46.8680   48.9980   17.2800 N   0  0  0  0  0  0  0  0  0  0  0  0
   47.2790   49.8820   16.1820 C   0  0  0  0  0  0  0  0  0  0  0  0
   48.2600   50.9310   16.7090 C   0  0  0  0  0  0  0  0  0  0  0  0
   49.4820   50.2260   17.3060 C   0  0  0  0  0  0  0  0  0  0  0  0
   49.0210   49.2770   18.4160 C   0  0  0  0  0  0  0  0  0  0  0  0
   48.0170   48.2750   17.8390 C   0  0  0  0  0  0  0  0  0  0  0  0
   45.8210   48.0660   16.8420 C   0  0  0  0  0  0  0  0  0  0  0  0
   44.6470   48.1200   17.8230 C   0  0  0  0  0  0  0  0  0  0  0  0
   44.4360   46.8980   19.8760 C   0  0  0  0  0  0  0  0  0  0  0  0
   44.4400   46.7900   18.4110 N   0  0  0  0  0  0  0  0  0  0  0  0
   43.5550   46.4180   18.0990 H   0  0  0  0  0  0  0  0  0  0  0  0
   45.1840   46.1740   18.1200 H   0  0  0  0  0  0  0  0  0  0  0  0
   52.3270   56.3140   20.4310 C   0  0  0  0  0  0  0  0  0  0  0  0
   53.5760   56.9060   20.2190 C   0  0  0  0  0  0  0  0  0  0  0  0
   53.8450   58.1150   20.8360 C   0  0  0  0  0  0  0  0  0  0  0  0
   52.8810   58.6970   21.6380 C   0  0  0  0  0  0  0  0  0  0  0  0
   51.7090   58.1210   21.8250 N   0  0  0  0  0  0  0  0  0  0  0  0
   51.4000   56.9690   21.2540 C   0  0  0  0  0  0  0  0  0  0  0  0
   50.1820   56.4160   21.4690 O   0  0  0  0  0  0  0  0  0  0  0  0
   49.0480   57.2780   21.3520 C   0  0  0  0  0  0  0  0  0  0  0  0
  1 10  2  0  0  0  0
  1  2  1  0  0  0  0
  2  3  2  0  0  0  0
  3  8  1  0  0  0  0
  4  3  1  0  0  0  0
  4  6  1  0  0  0  0
  5  4  2  0  0  0  0
  6  7  2  0  0  0  0
  7 23  1  0  0  0  0
  8  9  1  0  0  0  0
  8  7  1  0  0  0  0
 10  5  1  0  0  0  0
 11 16  1  0  0  0  0
 12 13  1  0  0  0  0
 12 11  1  0  0  0  0
 13 14  1  0  0  0  0
 14  1  1  0  0  0  0
 14 15  1  0  0  0  0
 16 15  1  0  0  0  0
 17 11  1  0  0  0  0
 17 18  1  0  0  0  0
 18 20  1  0  0  0  0
 20 19  1  0  0  0  0
 21 20  1  0  0  0  0
 22 20  1  0  0  0  0
 23 28  1  0  0  0  0
 24 23  2  0  0  0  0
 24 25  1  0  0  0  0
 25 26  2  0  0  0  0
 26 27  1  0  0  0  0
 28 29  1  0  0  0  0
 28 27  2  0  0  0  0
 30 29  1  0  0  0  0
M  END
>  <MODEL>
2

>  <REMARK>
  Name = ZINC45284573
                            x       y       z     vdW  Elec       q    Type
                         _______ _______ _______ _____ _____    ______ ____

>  <TORSDO>
F 6

>  <minimizedAffinity>
-8.7365252397093904

$$$$
ZINC45284573
 OpenBabel10211216243D

 30 33  0  0  0  0  0  0  0  0999 V2000
   48.2110   57.5550   19.6500 C   0  0  0  0  0  0  0  0  0  0  0  0
   47.8850   58.7810   20.2040 C   0  0  0  0  0  0  0  0  0  0  0  0
   47.3140   59.7420   19.3810 C   0  0  0  0  0  0  0  0  0  0  0  0
   47.0870   59.4450   18.0240 C   0  0  0  0  0  0  0  0  0  0  0  0
   47.4190   58.2480   17.5420 N   0  0  0  0  0  0  0  0  0  0  0  0
   46.5320   60.5410   17.4660 N   0  0  0  0  0  0  0  0  0  0  0  0
   46.4010   61.4830   18.3710 C   0  0  0  0  0  0  0  0  0  0  0  0
   46.8720   61.0370   19.5750 N   0  0  0  0  0  0  0  0  0  0  0  0
   46.8920   61.5340   20.4070 H   0  0  0  0  0  0  0  0  0  0  0  0
   47.9670   57.3270   18.3060 C   0  0  0  0  0  0  0  0  0  0  0  0
   51.0390   54.6860   21.0160 N   0  0  0  0  0  0  0  0  0  0  0  0
   50.8240   55.8570   21.8750 C   0  0  0  0  0  0  0  0  0  0  0  0
   50.1690   56.9750   21.0620 C   0  0  0  0  0  0  0  0  0  0  0  0
   48.8330   56.4780   20.5010 C   0  0  0  0  0  0  0  0  0  0  0  0
   49.0790   55.2300   19.6490 C   0  0  0  0  0  0  0  0  0  0  0  0
   49.7670   54.1620   20.5040 C   0  0  0  0  0  0  0  0  0  0  0  0
   51.7910   53.6430   21.7260 C   0  0  0  0  0  0  0  0  0  0  0  0
   50.9690   52.3530   21.7580 C   0  0  0  0  0  0  0  0  0  0  0  0
   52.4920   50.9680   20.5260 C   0  0  0  0  0  0  0  0  0  0  0  0
   51.8730   51.1980   21.8390 N   0  0  0  0  0  0  0  0  0  0  0  0
   52.5940   51.3820   22.5220 H   0  0  0  0  0  0  0  0  0  0  0  0
   51.3500   50.3810   22.1130 H   0  0  0  0  0  0  0  0  0  0  0  0
   45.8310   62.8230   18.1250 C   0  0  0  0  0  0  0  0  0  0  0  0
   46.4440   63.7030   17.2270 C   0  0  0  0  0  0  0  0  0  0  0  0
   45.8720   64.9470   17.0310 C   0  0  0  0  0  0  0  0  0  0  0  0
   44.7220   65.2830   17.7220 C   0  0  0  0  0  0  0  0  0  0  0  0
   44.1610   64.4370   18.5650 N   0  0  0  0  0  0  0  0  0  0  0  0
   44.6640   63.2350   18.7840 C   0  0  0  0  0  0  0  0  0  0  0  0
   44.0510   62.3960   19.6540 O   0  0  0  0  0  0  0  0  0  0  0  0
   42.7740   61.8810   19.2690 C   0  0  0  0  0  0  0  0  0  0  0  0
  1  2  1  0  0  0  0
  1 14  1  0  0  0  0
  3  8  1  0  0  0  0
  3  2  2  0  0  0  0
  4  3  1  0  0  0  0
  5  4  2  0  0  0  0
  5 10  1  0  0  0  0
  6  4  1  0  0  0  0
  6  7  2  0  0  0  0
  7  8  1  0  0  0  0
  8  9  1  0  0  0  0
 10  1  2  0  0  0  0
 11 17  1  0  0  0  0
 11 12  1  0  0  0  0
 13 12  1  0  0  0  0
 14 13  1  0  0  0  0
 15 14  1  0  0  0  0
 15 16  1  0  0  0  0
 16 11  1  0  0  0  0
 17 18  1  0  0  0  0
 18 20  1  0  0  0  0
 19 20  1  0  0  0  0
 20 22  1  0  0  0  0
 20 21  1  0  0  0  0
 23  7  1  0  0  0  0
 23 28  2  0  0  0  0
 24 23  1  0  0  0  0
 25 24  2  0  0  0  0
 25 26  1  0  0  0  0
 26 27  2  0  0  0  0
 27 28  1  0  0  0  0
 28 29  1  0  0  0  0
 30 29  1  0  0  0  0
M  END
>  <MODEL>
3

>  <REMARK>
  Name = ZINC45284573
                            x       y       z     vdW  Elec       q    Type
                         _______ _______ _______ _____ _____    ______ ____

>  <TORSDO>
F 6

>  <minimizedAffinity>
-8.5774659600234298

$$$$
ZINC45284573
 OpenBabel10211216243D

 30 33  0  0  0  0  0  0  0  0999 V2000
   46.8170   59.3950   19.0740 C   0  0  0  0  0  0  0  0  0  0  0  0
   47.3050   58.7990   20.2250 C   0  0  0  0  0  0  0  0  0  0  0  0
   48.1110   57.6760   20.0920 C   0  0  0  0  0  0  0  0  0  0  0  0
   48.4050   57.1840   18.8070 C   0  0  0  0  0  0  0  0  0  0  0  0
   47.9100   57.7970   17.7320 N   0  0  0  0  0  0  0  0  0  0  0  0
   49.1940   56.1030   18.9680 N   0  0  0  0  0  0  0  0  0  0  0  0
   49.4080   55.8940   20.2460 C   0  0  0  0  0  0  0  0  0  0  0  0
   48.7560   56.8430   20.9850 N   0  0  0  0  0  0  0  0  0  0  0  0
   48.7490   56.9170   21.9510 H   0  0  0  0  0  0  0  0  0  0  0  0
   47.1400   58.8580   17.8390 C   0  0  0  0  0  0  0  0  0  0  0  0
   45.2600   63.2610   18.2260 N   0  0  0  0  0  0  0  0  0  0  0  0
   44.3960   62.1190   17.9030 C   0  0  0  0  0  0  0  0  0  0  0  0
   45.2390   60.8460   17.8230 C   0  0  0  0  0  0  0  0  0  0  0  0
   45.9380   60.6160   19.1660 C   0  0  0  0  0  0  0  0  0  0  0  0
   46.7950   61.8400   19.5020 C   0  0  0  0  0  0  0  0  0  0  0  0
   45.9050   63.0860   19.5330 C   0  0  0  0  0  0  0  0  0  0  0  0
   44.5080   64.5230   18.1750 C   0  0  0  0  0  0  0  0  0  0  0  0
   44.6210   65.1260   16.7730 C   0  0  0  0  0  0  0  0  0  0  0  0
   46.8080   66.1020   16.8920 C   0  0  0  0  0  0  0  0  0  0  0  0
   46.0080   65.0190   16.3040 N   0  0  0  0  0  0  0  0  0  0  0  0
   46.3910   64.1290   16.5850 H   0  0  0  0  0  0  0  0  0  0  0  0
   46.0290   65.0930   15.2980 H   0  0  0  0  0  0  0  0  0  0  0  0
   50.2270   54.7980   20.8020 C   0  0  0  0  0  0  0  0  0  0  0  0
   50.0790   53.4900   20.3320 C   0  0  0  0  0  0  0  0  0  0  0  0
   50.8700   52.4980   20.8860 C   0  0  0  0  0  0  0  0  0  0  0  0
   51.7750   52.8270   21.8790 C   0  0  0  0  0  0  0  0  0  0  0  0
   51.8980   54.0680   22.3080 N   0  0  0  0  0  0  0  0  0  0  0  0
   51.1710   55.0520   21.8080 C   0  0  0  0  0  0  0  0  0  0  0  0
   51.3340   56.3140   22.2750 O   0  0  0  0  0  0  0  0  0  0  0  0
   52.5010   57.0190   21.8460 C   0  0  0  0  0  0  0  0  0  0  0  0
  1 14  1  0  0  0  0
  1  2  2  0  0  0  0
  3  2  1  0  0  0  0
  3  8  1  0  0  0  0
  4  6  1  0  0  0  0
  4  3  2  0  0  0  0
  5 10  2  0  0  0  0
  5  4  1  0  0  0  0
  6  7  2  0  0  0  0
  7 23  1  0  0  0  0
  7  8  1  0  0  0  0
  8  9  1  0  0  0  0
 10  1  1  0  0  0  0
 11 16  1  0  0  0  0
 12 11  1  0  0  0  0
 13 12  1  0  0  0  0
 13 14  1  0  0  0  0
 14 15  1  0  0  0  0
 15 16  1  0  0  0  0
 17 11  1  0  0  0  0
 18 17  1  0  0  0  0
 20 21  1  0  0  0  0
 20 18  1  0  0  0  0
 20 19  1  0  0  0  0
 22 20  1  0  0  0  0
 23 28  1  0  0  0  0
 24 23  2  0  0  0  0
 24 25  1  0  0  0  0
 25 26  2  0  0  0  0
 26 27  1  0  0  0  0
 28 29  1  0  0  0  0
 28 27  2  0  0  0  0
 30 29  1  0  0  0  0
M  END
>  <MODEL>
4

>  <REMARK>
  Name = ZINC45284573
                            x       y       z     vdW  Elec       q    Type
                         _______ _______ _______ _____ _____    ______ ____

>  <TORSDO>
F 6

>  <minimizedAffinity>
-8.4822113817504299

$$$$
ZINC45284573
 OpenBabel10211216243D

 30 33  0  0  0  0  0  0  0  0999 V2000
   49.8740   51.8420   18.0560 C   0  0  0  0  0  0  0  0  0  0  0  0
   48.5050   51.6630   17.9470 C   0  0  0  0  0  0  0  0  0  0  0  0
   48.0390   50.6490   17.1210 C   0  0  0  0  0  0  0  0  0  0  0  0
   48.9620   49.8420   16.4280 C   0  0  0  0  0  0  0  0  0  0  0  0
   50.2690   50.0570   16.5700 N   0  0  0  0  0  0  0  0  0  0  0  0
   48.2480   48.9510   15.7110 N   0  0  0  0  0  0  0  0  0  0  0  0
   46.9650   49.1450   15.9090 C   0  0  0  0  0  0  0  0  0  0  0  0
   46.7840   50.1880   16.7750 N   0  0  0  0  0  0  0  0  0  0  0  0
   45.9360   50.5370   17.0880 H   0  0  0  0  0  0  0  0  0  0  0  0
   50.7290   51.0170   17.3430 C   0  0  0  0  0  0  0  0  0  0  0  0
   51.7480   55.4860   19.1960 N   0  0  0  0  0  0  0  0  0  0  0  0
   50.3170   55.3610   19.4980 C   0  0  0  0  0  0  0  0  0  0  0  0
   49.7080   54.2480   18.6430 C   0  0  0  0  0  0  0  0  0  0  0  0
   50.4290   52.9300   18.9390 C   0  0  0  0  0  0  0  0  0  0  0  0
   51.9250   53.1010   18.6600 C   0  0  0  0  0  0  0  0  0  0  0  0
   52.4700   54.2480   19.5160 C   0  0  0  0  0  0  0  0  0  0  0  0
   52.3370   56.6350   19.8960 C   0  0  0  0  0  0  0  0  0  0  0  0
   51.2950   57.2510   20.8320 C   0  0  0  0  0  0  0  0  0  0  0  0
   53.0570   58.5470   21.8170 C   0  0  0  0  0  0  0  0  0  0  0  0
   51.9380   57.6350   22.0950 N   0  0  0  0  0  0  0  0  0  0  0  0
   51.2660   58.1000   22.6880 H   0  0  0  0  0  0  0  0  0  0  0  0
   52.2840   56.8100   22.5600 H   0  0  0  0  0  0  0  0  0  0  0  0
   45.8810   48.3580   15.2880 C   0  0  0  0  0  0  0  0  0  0  0  0
   45.9720   47.9490   13.9540 C   0  0  0  0  0  0  0  0  0  0  0  0
   44.9300   47.2130   13.4180 C   0  0  0  0  0  0  0  0  0  0  0  0
   43.8380   46.9060   14.2090 C   0  0  0  0  0  0  0  0  0  0  0  0
   43.7730   47.3030   15.4660 N   0  0  0  0  0  0  0  0  0  0  0  0
   44.7430   48.0020   16.0270 C   0  0  0  0  0  0  0  0  0  0  0  0
   44.6360   48.3830   17.3230 O   0  0  0  0  0  0  0  0  0  0  0  0
   44.7880   47.3640   18.3140 C   0  0  0  0  0  0  0  0  0  0  0  0
  1 14  1  0  0  0  0
  2  1  1  0  0  0  0
  3  2  2  0  0  0  0
  4  5  2  0  0  0  0
  4  3  1  0  0  0  0
  5 10  1  0  0  0  0
  6  7  2  0  0  0  0
  6  4  1  0  0  0  0
  7  8  1  0  0  0  0
  8  9  1  0  0  0  0
  8  3  1  0  0  0  0
 10  1  2  0  0  0  0
 11 12  1  0  0  0  0
 11 16  1  0  0  0  0
 11 17  1  0  0  0  0
 13 14  1  0  0  0  0
 13 12  1  0  0  0  0
 15 14  1  0  0  0  0
 15 16  1  0  0  0  0
 17 18  1  0  0  0  0
 18 20  1  0  0  0  0
 19 20  1  0  0  0  0
 20 22  1  0  0  0  0
 20 21  1  0  0  0  0
 23  7  1  0  0  0  0
 23 28  2  0  0  0  0
 24 23  1  0  0  0  0
 25 24  2  0  0  0  0
 25 26  1  0  0  0  0
 26 27  2  0  0  0  0
 27 28  1  0  0  0  0
 28 29  1  0  0  0  0
 29 30  1  0  0  0  0
M  END
>  <MODEL>
5

>  <REMARK>
  Name = ZINC45284573
                            x       y       z     vdW  Elec       q    Type
                         _______ _______ _______ _____ _____    ______ ____

>  <TORSDO>
F 6

>  <minimizedAffinity>
-8.2761452245869034

$$$$
ZINC45284573
 OpenBabel10211216243D

 30 33  0  0  0  0  0  0  0  0999 V2000
   49.2520   51.6500   17.5930 C   0  0  0  0  0  0  0  0  0  0  0  0
   48.9830   52.9240   18.0660 C   0  0  0  0  0  0  0  0  0  0  0  0
   50.0190   53.6370   18.6540 C   0  0  0  0  0  0  0  0  0  0  0  0
   51.2960   53.0510   18.7490 C   0  0  0  0  0  0  0  0  0  0  0  0
   51.4990   51.8220   18.2770 N   0  0  0  0  0  0  0  0  0  0  0  0
   52.0990   53.9510   19.3540 N   0  0  0  0  0  0  0  0  0  0  0  0
   51.4190   55.0370   19.6350 C   0  0  0  0  0  0  0  0  0  0  0  0
   50.1240   54.8920   19.2210 N   0  0  0  0  0  0  0  0  0  0  0  0
   49.4140   55.5460   19.3080 H   0  0  0  0  0  0  0  0  0  0  0  0
   50.5290   51.1290   17.7230 C   0  0  0  0  0  0  0  0  0  0  0  0
   47.1980   48.2780   16.0110 N   0  0  0  0  0  0  0  0  0  0  0  0
   46.6380   48.8760   17.2290 C   0  0  0  0  0  0  0  0  0  0  0  0
   47.7020   49.7370   17.9120 C   0  0  0  0  0  0  0  0  0  0  0  0
   48.1610   50.8340   16.9480 C   0  0  0  0  0  0  0  0  0  0  0  0
   48.6960   50.1860   15.6680 C   0  0  0  0  0  0  0  0  0  0  0  0
   47.6020   49.3110   15.0490 C   0  0  0  0  0  0  0  0  0  0  0  0
   46.2500   47.3340   15.4030 C   0  0  0  0  0  0  0  0  0  0  0  0
   44.8870   47.4700   16.0840 C   0  0  0  0  0  0  0  0  0  0  0  0
   44.5650   45.2670   15.1920 C   0  0  0  0  0  0  0  0  0  0  0  0
   44.3410   46.1340   16.3570 N   0  0  0  0  0  0  0  0  0  0  0  0
   44.8030   45.7400   17.1630 H   0  0  0  0  0  0  0  0  0  0  0  0
   43.3510   46.2060   16.5380 H   0  0  0  0  0  0  0  0  0  0  0  0
   51.9700   56.2360   20.2990 C   0  0  0  0  0  0  0  0  0  0  0  0
   53.2890   56.6360   20.0650 C   0  0  0  0  0  0  0  0  0  0  0  0
   53.7590   57.7660   20.7120 C   0  0  0  0  0  0  0  0  0  0  0  0
   52.9180   58.4610   21.5620 C   0  0  0  0  0  0  0  0  0  0  0  0
   51.6760   58.0650   21.7690 N   0  0  0  0  0  0  0  0  0  0  0  0
   51.1780   56.9960   21.1720 C   0  0  0  0  0  0  0  0  0  0  0  0
   49.8950   56.6290   21.4090 O   0  0  0  0  0  0  0  0  0  0  0  0
   48.9090   57.6640   21.3860 C   0  0  0  0  0  0  0  0  0  0  0  0
  1 10  2  0  0  0  0
  1  2  1  0  0  0  0
  2  3  2  0  0  0  0
  3  4  1  0  0  0  0
  3  8  1  0  0  0  0
  4  6  1  0  0  0  0
  5  4  2  0  0  0  0
  6  7  2  0  0  0  0
  7 23  1  0  0  0  0
  8  9  1  0  0  0  0
  8  7  1  0  0  0  0
 10  5  1  0  0  0  0
 11 12  1  0  0  0  0
 12 13  1  0  0  0  0
 14  1  1  0  0  0  0
 14 13  1  0  0  0  0
 15 14  1  0  0  0  0
 16 15  1  0  0  0  0
 16 11  1  0  0  0  0
 17 11  1  0  0  0  0
 17 18  1  0  0  0  0
 18 20  1  0  0  0  0
 19 20  1  0  0  0  0
 20 22  1  0  0  0  0
 20 21  1  0  0  0  0
 23 28  1  0  0  0  0
 24 23  2  0  0  0  0
 24 25  1  0  0  0  0
 25 26  2  0  0  0  0
 26 27  1  0  0  0  0
 28 29  1  0  0  0  0
 28 27  2  0  0  0  0
 30 29  1  0  0  0  0
M  END
>  <MODEL>
6

>  <REMARK>
  Name = ZINC45284573
                            x       y       z     vdW  Elec       q    Type
                         _______ _______ _______ _____ _____    ______ ____

>  <TORSDO>
F 6

>  <minimizedAffinity>
-8.1936494945343838

$$$$
ZINC45284573
 OpenBabel10211216243D

 30 33  0  0  0  0  0  0  0  0999 V2000
   50.6560   51.4260   19.8420 C   0  0  0  0  0  0  0  0  0  0  0  0
   49.6630   51.6090   18.8930 C   0  0  0  0  0  0  0  0  0  0  0  0
   49.0470   50.4830   18.3640 C   0  0  0  0  0  0  0  0  0  0  0  0
   49.4430   49.2060   18.8020 C   0  0  0  0  0  0  0  0  0  0  0  0
   50.4030   49.0870   19.7190 N   0  0  0  0  0  0  0  0  0  0  0  0
   48.6920   48.3070   18.1340 N   0  0  0  0  0  0  0  0  0  0  0  0
   47.8690   48.9300   17.3230 C   0  0  0  0  0  0  0  0  0  0  0  0
   48.0500   50.2810   17.4280 N   0  0  0  0  0  0  0  0  0  0  0  0
   47.5710   50.9680   16.9400 H   0  0  0  0  0  0  0  0  0  0  0  0
   51.0030   50.1420   20.2270 C   0  0  0  0  0  0  0  0  0  0  0  0
   51.2000   55.1770   21.7710 N   0  0  0  0  0  0  0  0  0  0  0  0
   51.6320   53.9870   22.5150 C   0  0  0  0  0  0  0  0  0  0  0  0
   50.9670   52.7440   21.9220 C   0  0  0  0  0  0  0  0  0  0  0  0
   51.3560   52.6160   20.4470 C   0  0  0  0  0  0  0  0  0  0  0  0
   50.9370   53.8880   19.7050 C   0  0  0  0  0  0  0  0  0  0  0  0
   51.6040   55.0990   20.3620 C   0  0  0  0  0  0  0  0  0  0  0  0
   51.7090   56.4050   22.3980 C   0  0  0  0  0  0  0  0  0  0  0  0
   52.0890   57.4130   21.3120 C   0  0  0  0  0  0  0  0  0  0  0  0
   54.3030   58.0460   20.6410 C   0  0  0  0  0  0  0  0  0  0  0  0
   53.3040   58.1320   21.7150 N   0  0  0  0  0  0  0  0  0  0  0  0
   53.0810   59.1010   21.8890 H   0  0  0  0  0  0  0  0  0  0  0  0
   53.6770   57.7170   22.5560 H   0  0  0  0  0  0  0  0  0  0  0  0
   46.8940   48.2700   16.4310 C   0  0  0  0  0  0  0  0  0  0  0  0
   45.7370   47.6830   16.9520 C   0  0  0  0  0  0  0  0  0  0  0  0
   44.8550   47.0770   16.0740 C   0  0  0  0  0  0  0  0  0  0  0  0
   45.1400   47.0690   14.7210 C   0  0  0  0  0  0  0  0  0  0  0  0
   46.2380   47.6290   14.2520 N   0  0  0  0  0  0  0  0  0  0  0  0
   47.1100   48.2260   15.0460 C   0  0  0  0  0  0  0  0  0  0  0  0
   48.2230   48.7930   14.5200 O   0  0  0  0  0  0  0  0  0  0  0  0
   48.0280   49.8580   13.5870 C   0  0  0  0  0  0  0  0  0  0  0  0
  1 10  1  0  0  0  0
  1 14  1  0  0  0  0
  2  1  2  0  0  0  0
  3  4  2  0  0  0  0
  3  2  1  0  0  0  0
  4  5  1  0  0  0  0
  5 10  2  0  0  0  0
  6  4  1  0  0  0  0
  7  8  1  0  0  0  0
  7  6  2  0  0  0  0
  8  3  1  0  0  0  0
  9  8  1  0  0  0  0
 11 17  1  0  0  0  0
 11 12  1  0  0  0  0
 13 12  1  0  0  0  0
 14 13  1  0  0  0  0
 15 16  1  0  0  0  0
 15 14  1  0  0  0  0
 16 11  1  0  0  0  0
 18 20  1  0  0  0  0
 18 17  1  0  0  0  0
 19 20  1  0  0  0  0
 20 21  1  0  0  0  0
 20 22  1  0  0  0  0
 23 24  1  0  0  0  0
 23  7  1  0  0  0  0
 25 24  2  0  0  0  0
 26 25  1  0  0  0  0
 27 26  2  0  0  0  0
 27 28  1  0  0  0  0
 28 23  2  0  0  0  0
 29 28  1  0  0  0  0
 30 29  1  0  0  0  0
M  END
>  <MODEL>
7

>  <REMARK>
  Name = ZINC45284573
                            x       y       z     vdW  Elec       q    Type
                         _______ _______ _______ _____ _____    ______ ____

>  <TORSDO>
F 6

>  <minimizedAffinity>
-7.9688253051497293

$$$$
ZINC45284573
 OpenBabel10211216243D

 30 33  0  0  0  0  0  0  0  0999 V2000
   48.8900   56.7940   18.9030 C   0  0  0  0  0  0  0  0  0  0  0  0
   48.4070   57.7750   19.7520 C   0  0  0  0  0  0  0  0  0  0  0  0
   47.5160   58.7080   19.2380 C   0  0  0  0  0  0  0  0  0  0  0  0
   47.1340   58.6280   17.8850 C   0  0  0  0  0  0  0  0  0  0  0  0
   47.6290   57.6620   17.1120 N   0  0  0  0  0  0  0  0  0  0  0  0
   46.2740   59.6410   17.6560 N   0  0  0  0  0  0  0  0  0  0  0  0
   46.0980   60.3330   18.7580 C   0  0  0  0  0  0  0  0  0  0  0  0
   46.8470   59.7940   19.7670 N   0  0  0  0  0  0  0  0  0  0  0  0
   46.8980   60.1130   20.6810 H   0  0  0  0  0  0  0  0  0  0  0  0
   48.4790   56.7740   17.5800 C   0  0  0  0  0  0  0  0  0  0  0  0
   50.4580   53.6080   21.2440 N   0  0  0  0  0  0  0  0  0  0  0  0
   50.2150   53.3220   19.8240 C   0  0  0  0  0  0  0  0  0  0  0  0
   49.2520   54.3630   19.2500 C   0  0  0  0  0  0  0  0  0  0  0  0
   49.8600   55.7590   19.4120 C   0  0  0  0  0  0  0  0  0  0  0  0
   50.1470   56.0130   20.8950 C   0  0  0  0  0  0  0  0  0  0  0  0
   51.0850   54.9230   21.4210 C   0  0  0  0  0  0  0  0  0  0  0  0
   51.2670   52.5500   21.8630 C   0  0  0  0  0  0  0  0  0  0  0  0
   51.4480   51.3990   20.8720 C   0  0  0  0  0  0  0  0  0  0  0  0
   50.6490   49.1650   20.5140 C   0  0  0  0  0  0  0  0  0  0  0  0
   51.0990   50.1310   21.5260 N   0  0  0  0  0  0  0  0  0  0  0  0
   51.9090   49.7640   22.0040 H   0  0  0  0  0  0  0  0  0  0  0  0
   50.3580   50.2890   22.1930 H   0  0  0  0  0  0  0  0  0  0  0  0
   45.2230   61.5160   18.8860 C   0  0  0  0  0  0  0  0  0  0  0  0
   43.8600   61.3670   19.1620 C   0  0  0  0  0  0  0  0  0  0  0  0
   43.0830   62.5070   19.2730 C   0  0  0  0  0  0  0  0  0  0  0  0
   43.6700   63.7480   19.1100 C   0  0  0  0  0  0  0  0  0  0  0  0
   44.9580   63.8650   18.8500 N   0  0  0  0  0  0  0  0  0  0  0  0
   45.7450   62.8100   18.7390 C   0  0  0  0  0  0  0  0  0  0  0  0
   47.0640   62.9770   18.4770 O   0  0  0  0  0  0  0  0  0  0  0  0
   47.4030   63.7680   17.3360 C   0  0  0  0  0  0  0  0  0  0  0  0
  1 14  1  0  0  0  0
  1  2  2  0  0  0  0
  3  2  1  0  0  0  0
  3  8  1  0  0  0  0
  4  3  2  0  0  0  0
  5 10  2  0  0  0  0
  5  4  1  0  0  0  0
  6  4  1  0  0  0  0
  6  7  2  0  0  0  0
  7 23  1  0  0  0  0
  7  8  1  0  0  0  0
  8  9  1  0  0  0  0
 10  1  1  0  0  0  0
 11 16  1  0  0  0  0
 11 17  1  0  0  0  0
 12 11  1  0  0  0  0
 13 14  1  0  0  0  0
 13 12  1  0  0  0  0
 14 15  1  0  0  0  0
 15 16  1  0  0  0  0
 18 20  1  0  0  0  0
 18 17  1  0  0  0  0
 19 20  1  0  0  0  0
 20 21  1  0  0  0  0
 20 22  1  0  0  0  0
 23 24  2  0  0  0  0
 24 25  1  0  0  0  0
 26 25  2  0  0  0  0
 27 26  1  0  0  0  0
 28 27  2  0  0  0  0
 28 23  1  0  0  0  0
 29 28  1  0  0  0  0
 30 29  1  0  0  0  0
M  END
>  <MODEL>
8

>  <REMARK>
  Name = ZINC45284573
                            x       y       z     vdW  Elec       q    Type
                         _______ _______ _______ _____ _____    ______ ____

>  <TORSDO>
F 6

>  <minimizedAffinity>
-7.7363732601707138

$$$$
ZINC45284573
 OpenBabel10211216243D

 30 33  0  0  0  0  0  0  0  0999 V2000
   48.5160   51.2320   17.2850 C   0  0  0  0  0  0  0  0  0  0  0  0
   49.4100   51.5390   18.2970 C   0  0  0  0  0  0  0  0  0  0  0  0
   49.6660   52.8770   18.5630 C   0  0  0  0  0  0  0  0  0  0  0  0
   49.0160   53.8700   17.8070 C   0  0  0  0  0  0  0  0  0  0  0  0
   48.1630   53.5190   16.8450 N   0  0  0  0  0  0  0  0  0  0  0  0
   49.4420   55.0630   18.2690 N   0  0  0  0  0  0  0  0  0  0  0  0
   50.2990   54.8810   19.2460 C   0  0  0  0  0  0  0  0  0  0  0  0
   50.4720   53.5420   19.4670 N   0  0  0  0  0  0  0  0  0  0  0  0
   51.0500   53.1370   20.1300 H   0  0  0  0  0  0  0  0  0  0  0  0
   47.9130   52.2560   16.5740 C   0  0  0  0  0  0  0  0  0  0  0  0
   46.2520   47.7530   16.3560 N   0  0  0  0  0  0  0  0  0  0  0  0
   47.1340   48.2650   15.2990 C   0  0  0  0  0  0  0  0  0  0  0  0
   47.5010   49.7190   15.5990 C   0  0  0  0  0  0  0  0  0  0  0  0
   48.2040   49.7940   16.9570 C   0  0  0  0  0  0  0  0  0  0  0  0
   47.2840   49.2110   18.0330 C   0  0  0  0  0  0  0  0  0  0  0  0
   46.9220   47.7710   17.6620 C   0  0  0  0  0  0  0  0  0  0  0  0
   45.7670   46.4050   16.0310 C   0  0  0  0  0  0  0  0  0  0  0  0
   44.6470   46.5030   14.9930 C   0  0  0  0  0  0  0  0  0  0  0  0
   43.6990   44.3200   15.2950 C   0  0  0  0  0  0  0  0  0  0  0  0
   43.4720   45.7610   15.4700 N   0  0  0  0  0  0  0  0  0  0  0  0
   43.3220   45.9610   16.4480 H   0  0  0  0  0  0  0  0  0  0  0  0
   42.6600   46.0410   14.9410 H   0  0  0  0  0  0  0  0  0  0  0  0
   50.9760   55.9600   19.9950 C   0  0  0  0  0  0  0  0  0  0  0  0
   52.3400   56.2050   19.8120 C   0  0  0  0  0  0  0  0  0  0  0  0
   52.9280   57.2270   20.5370 C   0  0  0  0  0  0  0  0  0  0  0  0
   52.1560   57.9700   21.4120 C   0  0  0  0  0  0  0  0  0  0  0  0
   50.8700   57.7210   21.5690 N   0  0  0  0  0  0  0  0  0  0  0  0
   50.2600   56.7600   20.8970 C   0  0  0  0  0  0  0  0  0  0  0  0
   48.9350   56.5430   21.0850 O   0  0  0  0  0  0  0  0  0  0  0  0
   48.0490   57.6130   20.7490 C   0  0  0  0  0  0  0  0  0  0  0  0
  1  2  2  0  0  0  0
  2  3  1  0  0  0  0
  3  8  1  0  0  0  0
  4  6  1  0  0  0  0
  4  3  2  0  0  0  0
  5  4  1  0  0  0  0
  6  7  2  0  0  0  0
  7  8  1  0  0  0  0
  7 23  1  0  0  0  0
  8  9  1  0  0  0  0
 10  5  2  0  0  0  0
 10  1  1  0  0  0  0
 11 16  1  0  0  0  0
 12 13  1  0  0  0  0
 12 11  1  0  0  0  0
 13 14  1  0  0  0  0
 14  1  1  0  0  0  0
 14 15  1  0  0  0  0
 16 15  1  0  0  0  0
 17 11  1  0  0  0  0
 18 20  1  0  0  0  0
 18 17  1  0  0  0  0
 19 20  1  0  0  0  0
 20 21  1  0  0  0  0
 22 20  1  0  0  0  0
 23 28  1  0  0  0  0
 24 23  2  0  0  0  0
 24 25  1  0  0  0  0
 25 26  2  0  0  0  0
 26 27  1  0  0  0  0
 28 29  1  0  0  0  0
 28 27  2  0  0  0  0
 30 29  1  0  0  0  0
M  END
>  <MODEL>
9

>  <REMARK>
  Name = ZINC45284573
                            x       y       z     vdW  Elec       q    Type
                         _______ _______ _______ _____ _____    ______ ____

>  <TORSDO>
F 6

>  <minimizedAffinity>
-7.7304812091372321

$$$$
ZINC67272115
 OpenBabel10211216253D

 30 32  0  0  1  0  0  0  0  0999 V2000
   52.5960   51.7030   19.6890 C   0  0  0  0  0  0  0  0  0  0  0  0
   48.8350   58.3610   22.0280 C   0  0  0  0  0  0  0  0  0  0  0  0
   49.7300   57.5020   21.1330 C   0  0  1  0  0  0  0  0  0  0  0  0
   50.9090   56.9700   21.9510 C   0  0  0  0  0  0  0  0  0  0  0  0
   51.8090   56.1190   21.0520 C   0  0  0  0  0  0  0  0  0  0  0  0
   51.0040   54.9600   20.4750 C   0  0  2  0  0  0  0  0  0  0  0  0
   51.8820   54.0850   19.6100 C   0  0  0  0  0  0  0  0  0  0  0  0
   51.8700   52.8700   20.1960 N   0  0  0  0  0  0  0  0  0  0  0  0
   51.1120   52.8630   21.2990 C   0  0  0  0  0  0  0  0  0  0  0  0
   50.9450   51.8820   21.9990 O   0  0  0  0  0  0  0  0  0  0  0  0
   52.4750   54.4080   18.6020 O   0  0  0  0  0  0  0  0  0  0  0  0
   49.8130   55.4750   19.6750 C   0  0  0  0  0  0  0  0  0  0  0  0
   50.5530   54.0630   21.5470 N   0  0  0  0  0  0  0  0  0  0  0  0
   49.9690   54.2900   22.2880 H   0  0  0  0  0  0  0  0  0  0  0  0
   48.9190   56.3290   20.5790 C   0  0  0  0  0  0  0  0  0  0  0  0
   51.6400   50.7970   18.9560 C   0  0  0  0  0  0  0  0  0  0  0  0
   51.0790   51.2040   17.8000 N   0  0  0  0  0  0  0  0  0  0  0  0
   51.2900   52.0790   17.4400 H   0  0  0  0  0  0  0  0  0  0  0  0
   51.3750   49.7030   19.4070 O   0  0  0  0  0  0  0  0  0  0  0  0
   50.1490   50.3230   17.0880 C   0  0  0  0  0  0  0  0  0  0  0  0
   48.8090   51.0380   16.9040 C   0  0  1  0  0  0  0  0  0  0  0  0
   48.4460   51.0670   15.4190 C   0  0  0  0  0  0  0  0  0  0  0  0
   47.7660   50.3220   17.6500 N   0  0  0  0  0  0  0  0  0  0  0  0
   47.4250   50.9070   18.3970 H   0  0  0  0  0  0  0  0  0  0  0  0
   48.3290   49.0900   18.2150 C   0  0  0  0  0  0  0  0  0  0  0  0
   47.2680   48.3810   19.0600 C   0  0  0  0  0  0  0  0  0  0  0  0
   46.0670   48.0350   18.1760 C   0  0  1  0  0  0  0  0  0  0  0  0
   44.9690   47.3960   19.0290 C   0  0  0  0  0  0  0  0  0  0  0  0
   45.5330   49.3180   17.5320 C   0  0  0  0  0  0  0  0  0  0  0  0
   46.6580   49.9940   16.7440 C   0  0  0  0  0  0  0  0  0  0  0  0
  1  8  1  0  0  0  0
  3  4  1  0  0  0  0
  3  2  1  1  0  0  0
  5  4  1  0  0  0  0
  6  7  1  6  0  0  0
  6  5  1  0  0  0  0
  6 13  1  0  0  0  0
  7  8  1  0  0  0  0
  8  9  1  0  0  0  0
  9 13  1  0  0  0  0
  9 10  2  0  0  0  0
 11  7  2  0  0  0  0
 12  6  1  0  0  0  0
 12 15  1  0  0  0  0
 13 14  1  0  0  0  0
 15  3  1  0  0  0  0
 16 19  2  0  0  0  0
 16  1  1  0  0  0  0
 17 16  1  0  0  0  0
 18 17  1  0  0  0  0
 20 17  1  0  0  0  0
 21 22  1  6  0  0  0
 21 20  1  0  0  0  0
 21 23  1  0  0  0  0
 23 25  1  0  0  0  0
 23 24  1  0  0  0  0
 25 26  1  0  0  0  0
 27 28  1  1  0  0  0
 27 26  1  0  0  0  0
 29 27  1  0  0  0  0
 30 29  1  0  0  0  0
 30 23  1  0  0  0  0
M  END
>  <MODEL>
1

>  <REMARK>
  Name = ZINC67272115
                            x       y       z     vdW  Elec       q    Type
                         _______ _______ _______ _____ _____    ______ ____

>  <TORSDO>
F 5

>  <minimizedAffinity>
-9.6650217524397792

$$$$
ZINC67272115
 OpenBabel10211216253D

 30 32  0  0  1  0  0  0  0  0999 V2000
   52.1680   50.7680   20.0360 C   0  0  0  0  0  0  0  0  0  0  0  0
   46.1440   48.3860   15.3460 C   0  0  0  0  0  0  0  0  0  0  0  0
   47.2540   49.3220   15.8300 C   0  0  1  0  0  0  0  0  0  0  0  0
   46.9690   49.7460   17.2730 C   0  0  0  0  0  0  0  0  0  0  0  0
   48.0750   50.6900   17.7530 C   0  0  0  0  0  0  0  0  0  0  0  0
   49.4220   49.9830   17.6690 C   0  0  2  0  0  0  0  0  0  0  0  0
   50.5250   50.8860   18.1710 C   0  0  0  0  0  0  0  0  0  0  0  0
   51.0580   50.2480   19.2340 N   0  0  0  0  0  0  0  0  0  0  0  0
   50.4460   49.0800   19.4660 C   0  0  0  0  0  0  0  0  0  0  0  0
   50.7480   48.3250   20.3690 O   0  0  0  0  0  0  0  0  0  0  0  0
   50.8610   51.9580   17.7150 O   0  0  0  0  0  0  0  0  0  0  0  0
   49.7090   49.5350   16.2400 C   0  0  0  0  0  0  0  0  0  0  0  0
   49.4570   48.8340   18.5850 N   0  0  0  0  0  0  0  0  0  0  0  0
   48.8820   48.0540   18.5600 H   0  0  0  0  0  0  0  0  0  0  0  0
   48.5980   48.5940   15.7660 C   0  0  0  0  0  0  0  0  0  0  0  0
   51.6420   51.7680   21.0330 C   0  0  0  0  0  0  0  0  0  0  0  0
   52.1980   52.9920   21.1160 N   0  0  0  0  0  0  0  0  0  0  0  0
   52.9370   53.2300   20.5340 H   0  0  0  0  0  0  0  0  0  0  0  0
   50.7190   51.4700   21.7610 O   0  0  0  0  0  0  0  0  0  0  0  0
   51.6880   53.9650   22.0860 C   0  0  0  0  0  0  0  0  0  0  0  0
   51.7520   55.3700   21.4830 C   0  0  1  0  0  0  0  0  0  0  0  0
   52.3040   55.2890   20.0590 C   0  0  0  0  0  0  0  0  0  0  0  0
   50.4040   55.9510   21.4530 N   0  0  0  0  0  0  0  0  0  0  0  0
   49.8300   55.5050   22.1540 H   0  0  0  0  0  0  0  0  0  0  0  0
   49.8090   55.7360   20.1290 C   0  0  0  0  0  0  0  0  0  0  0  0
   48.3740   56.2680   20.1180 C   0  0  0  0  0  0  0  0  0  0  0  0
   48.3880   57.7660   20.4360 C   0  0  1  0  0  0  0  0  0  0  0  0
   46.9520   58.2890   20.5040 C   0  0  0  0  0  0  0  0  0  0  0  0
   49.0780   57.9850   21.7850 C   0  0  0  0  0  0  0  0  0  0  0  0
   50.4870   57.3900   21.7350 C   0  0  0  0  0  0  0  0  0  0  0  0
  1 16  1  0  0  0  0
  3  2  1  1  0  0  0
  3  4  1  0  0  0  0
  4  5  1  0  0  0  0
  6 12  1  6  0  0  0
  6  5  1  0  0  0  0
  6  7  1  0  0  0  0
  6 13  1  0  0  0  0
  7  8  1  0  0  0  0
  8  9  1  0  0  0  0
  8  1  1  0  0  0  0
  9 10  2  0  0  0  0
 11  7  2  0  0  0  0
 13  9  1  0  0  0  0
 14 13  1  0  0  0  0
 15  3  1  0  0  0  0
 15 12  1  0  0  0  0
 16 17  1  0  0  0  0
 16 19  2  0  0  0  0
 17 20  1  0  0  0  0
 18 17  1  0  0  0  0
 21 22  1  6  0  0  0
 21 20  1  0  0  0  0
 23 21  1  0  0  0  0
 23 30  1  0  0  0  0
 23 24  1  0  0  0  0
 25 23  1  0  0  0  0
 26 25  1  0  0  0  0
 26 27  1  0  0  0  0
 27 28  1  1  0  0  0
 27 29  1  0  0  0  0
 30 29  1  0  0  0  0
M  END
>  <MODEL>
2

>  <REMARK>
  Name = ZINC67272115
                            x       y       z     vdW  Elec       q    Type
                         _______ _______ _______ _____ _____    ______ ____

>  <TORSDO>
F 5

>  <minimizedAffinity>
-9.5773725014356863

$$$$
ZINC67272115
 OpenBabel10211216253D

 30 32  0  0  1  0  0  0  0  0999 V2000
   52.4660   51.6010   20.0570 C   0  0  0  0  0  0  0  0  0  0  0  0
   48.4810   58.5000   20.7440 C   0  0  0  0  0  0  0  0  0  0  0  0
   48.8830   57.0730   21.1240 C   0  0  1  0  0  0  0  0  0  0  0  0
   48.5680   56.1290   19.9610 C   0  0  0  0  0  0  0  0  0  0  0  0
   48.9610   54.7000   20.3460 C   0  0  0  0  0  0  0  0  0  0  0  0
   50.4480   54.6510   20.6760 C   0  0  2  0  0  0  0  0  0  0  0  0
   50.8660   53.2420   21.0260 C   0  0  0  0  0  0  0  0  0  0  0  0
   51.7860   52.8980   20.1010 N   0  0  0  0  0  0  0  0  0  0  0  0
   52.0000   53.8890   19.2270 C   0  0  0  0  0  0  0  0  0  0  0  0
   52.7860   53.8170   18.3020 O   0  0  0  0  0  0  0  0  0  0  0  0
   50.4590   52.5620   21.9440 O   0  0  0  0  0  0  0  0  0  0  0  0
   50.7800   55.6040   21.8190 C   0  0  0  0  0  0  0  0  0  0  0  0
   51.2500   54.9760   19.4880 N   0  0  0  0  0  0  0  0  0  0  0  0
   51.2390   55.8080   18.9900 H   0  0  0  0  0  0  0  0  0  0  0  0
   50.3810   57.0300   21.4290 C   0  0  0  0  0  0  0  0  0  0  0  0
   51.6390   50.6260   19.2590 C   0  0  0  0  0  0  0  0  0  0  0  0
   50.9780   51.0450   18.1610 N   0  0  0  0  0  0  0  0  0  0  0  0
   51.0340   51.9740   17.8860 H   0  0  0  0  0  0  0  0  0  0  0  0
   51.5690   49.4660   19.6040 O   0  0  0  0  0  0  0  0  0  0  0  0
   50.1740   50.0980   17.3850 C   0  0  0  0  0  0  0  0  0  0  0  0
   48.8620   50.7670   16.9660 C   0  0  1  0  0  0  0  0  0  0  0  0
   48.6670   50.6040   15.4580 C   0  0  0  0  0  0  0  0  0  0  0  0
   47.7430   50.1350   17.6750 N   0  0  0  0  0  0  0  0  0  0  0  0
   47.4020   50.7600   18.3900 H   0  0  0  0  0  0  0  0  0  0  0  0
   48.2010   48.8880   18.2990 C   0  0  0  0  0  0  0  0  0  0  0  0
   47.0590   48.2670   19.1070 C   0  0  0  0  0  0  0  0  0  0  0  0
   45.8830   47.9690   18.1730 C   0  0  1  0  0  0  0  0  0  0  0  0
   44.7090   47.4210   18.9860 C   0  0  0  0  0  0  0  0  0  0  0  0
   45.4610   49.2630   17.4710 C   0  0  0  0  0  0  0  0  0  0  0  0
   46.6620   49.8480   16.7240 C   0  0  0  0  0  0  0  0  0  0  0  0
  1  8  1  0  0  0  0
  3  2  1  6  0  0  0
  3 15  1  0  0  0  0
  4  5  1  0  0  0  0
  4  3  1  0  0  0  0
  5  6  1  0  0  0  0
  6 13  1  6  0  0  0
  6  7  1  0  0  0  0
  6 12  1  0  0  0  0
  7 11  2  0  0  0  0
  8  7  1  0  0  0  0
  9 13  1  0  0  0  0
  9  8  1  0  0  0  0
 10  9  2  0  0  0  0
 14 13  1  0  0  0  0
 15 12  1  0  0  0  0
 16 19  2  0  0  0  0
 16  1  1  0  0  0  0
 17 16  1  0  0  0  0
 18 17  1  0  0  0  0
 20 17  1  0  0  0  0
 21 22  1  6  0  0  0
 21 20  1  0  0  0  0
 21 23  1  0  0  0  0
 23 25  1  0  0  0  0
 23 24  1  0  0  0  0
 25 26  1  0  0  0  0
 27 28  1  1  0  0  0
 27 26  1  0  0  0  0
 29 27  1  0  0  0  0
 30 29  1  0  0  0  0
 30 23  1  0  0  0  0
M  END
>  <MODEL>
3

>  <REMARK>
  Name = ZINC67272115
                            x       y       z     vdW  Elec       q    Type
                         _______ _______ _______ _____ _____    ______ ____

>  <TORSDO>
F 5

>  <minimizedAffinity>
-9.5317394540835174

$$$$
ZINC67272115
 OpenBabel10211216253D

 30 32  0  0  1  0  0  0  0  0999 V2000
   52.5880   51.5770   19.7270 C   0  0  0  0  0  0  0  0  0  0  0  0
   48.9110   58.3010   22.0110 C   0  0  0  0  0  0  0  0  0  0  0  0
   49.8090   57.4270   21.1320 C   0  0  1  0  0  0  0  0  0  0  0  0
   50.9560   56.8670   21.9760 C   0  0  0  0  0  0  0  0  0  0  0  0
   51.8600   56.0010   21.0940 C   0  0  0  0  0  0  0  0  0  0  0  0
   51.0460   54.8630   20.4920 C   0  0  2  0  0  0  0  0  0  0  0  0
   51.9260   53.9740   19.6440 C   0  0  0  0  0  0  0  0  0  0  0  0
   51.8750   52.7570   20.2230 N   0  0  0  0  0  0  0  0  0  0  0  0
   51.0900   52.7600   21.3070 C   0  0  0  0  0  0  0  0  0  0  0  0
   50.8860   51.7800   21.9970 O   0  0  0  0  0  0  0  0  0  0  0  0
   52.5490   54.2890   18.6530 O   0  0  0  0  0  0  0  0  0  0  0  0
   49.8850   55.4060   19.6660 C   0  0  0  0  0  0  0  0  0  0  0  0
   50.5500   53.9700   21.5480 N   0  0  0  0  0  0  0  0  0  0  0  0
   49.9540   54.2060   22.2760 H   0  0  0  0  0  0  0  0  0  0  0  0
   48.9880   56.2740   20.5530 C   0  0  0  0  0  0  0  0  0  0  0  0
   51.9130   51.0710   18.4780 C   0  0  0  0  0  0  0  0  0  0  0  0
   50.6010   50.7660   18.4990 N   0  0  0  0  0  0  0  0  0  0  0  0
   50.0900   50.8720   19.3170 H   0  0  0  0  0  0  0  0  0  0  0  0
   52.5510   50.9370   17.4560 O   0  0  0  0  0  0  0  0  0  0  0  0
   49.9440   50.2730   17.2860 C   0  0  0  0  0  0  0  0  0  0  0  0
   48.4900   50.7510   17.2610 C   0  0  1  0  0  0  0  0  0  0  0  0
   48.3320   51.8480   16.2070 C   0  0  0  0  0  0  0  0  0  0  0  0
   47.6100   49.6230   16.9290 N   0  0  0  0  0  0  0  0  0  0  0  0
   47.9350   48.7930   17.4030 H   0  0  0  0  0  0  0  0  0  0  0  0
   47.6320   49.3960   15.4800 C   0  0  0  0  0  0  0  0  0  0  0  0
   46.7800   48.1720   15.1380 C   0  0  0  0  0  0  0  0  0  0  0  0
   45.3390   48.4150   15.5960 C   0  0  1  0  0  0  0  0  0  0  0  0
   44.4990   47.1650   15.3290 C   0  0  0  0  0  0  0  0  0  0  0  0
   45.3360   48.7240   17.0960 C   0  0  0  0  0  0  0  0  0  0  0  0
   46.2420   49.9280   17.3660 C   0  0  0  0  0  0  0  0  0  0  0  0
  1  8  1  0  0  0  0
  3  4  1  0  0  0  0
  3  2  1  1  0  0  0
  5  4  1  0  0  0  0
  6  7  1  6  0  0  0
  6  5  1  0  0  0  0
  6 13  1  0  0  0  0
  7  8  1  0  0  0  0
  8  9  1  0  0  0  0
  9 13  1  0  0  0  0
  9 10  2  0  0  0  0
 11  7  2  0  0  0  0
 12  6  1  0  0  0  0
 12 15  1  0  0  0  0
 13 14  1  0  0  0  0
 15  3  1  0  0  0  0
 16 17  1  0  0  0  0
 16  1  1  0  0  0  0
 17 18  1  0  0  0  0
 19 16  2  0  0  0  0
 20 17  1  0  0  0  0
 21 22  1  6  0  0  0
 21 20  1  0  0  0  0
 23 21  1  0  0  0  0
 23 30  1  0  0  0  0
 23 24  1  0  0  0  0
 25 23  1  0  0  0  0
 26 25  1  0  0  0  0
 26 27  1  0  0  0  0
 27 28  1  1  0  0  0
 27 29  1  0  0  0  0
 29 30  1  0  0  0  0
M  END
>  <MODEL>
4

>  <REMARK>
  Name = ZINC67272115
                            x       y       z     vdW  Elec       q    Type
                         _______ _______ _______ _____ _____    ______ ____

>  <TORSDO>
F 5

>  <minimizedAffinity>
-9.3707937942664064

$$$$
ZINC67272115
 OpenBabel10211216253D

 30 32  0  0  1  0  0  0  0  0999 V2000
   51.9010   50.7300   18.6310 C   0  0  0  0  0  0  0  0  0  0  0  0
   44.6890   47.8330   16.7490 C   0  0  0  0  0  0  0  0  0  0  0  0
   46.0150   48.5550   16.4990 C   0  0  1  0  0  0  0  0  0  0  0  0
   46.1260   49.7550   17.4420 C   0  0  0  0  0  0  0  0  0  0  0  0
   47.4490   50.4820   17.1840 C   0  0  0  0  0  0  0  0  0  0  0  0
   48.6120   49.5240   17.4130 C   0  0  2  0  0  0  0  0  0  0  0  0
   49.9300   50.2310   17.1970 C   0  0  0  0  0  0  0  0  0  0  0  0
   50.5720   50.1660   18.3820 N   0  0  0  0  0  0  0  0  0  0  0  0
   49.8450   49.5210   19.3020 C   0  0  0  0  0  0  0  0  0  0  0  0
   50.2120   49.3340   20.4460 O   0  0  0  0  0  0  0  0  0  0  0  0
   50.3260   50.7490   16.1750 O   0  0  0  0  0  0  0  0  0  0  0  0
   48.5010   48.3120   16.4940 C   0  0  0  0  0  0  0  0  0  0  0  0
   48.6600   49.1000   18.8190 N   0  0  0  0  0  0  0  0  0  0  0  0
   47.9750   48.6140   19.3030 H   0  0  0  0  0  0  0  0  0  0  0  0
   47.1750   47.5910   16.7550 C   0  0  0  0  0  0  0  0  0  0  0  0
   51.8140   52.2340   18.6420 C   0  0  0  0  0  0  0  0  0  0  0  0
   50.7750   52.8440   19.2460 N   0  0  0  0  0  0  0  0  0  0  0  0
   50.0830   52.3140   19.6730 H   0  0  0  0  0  0  0  0  0  0  0  0
   52.6780   52.8960   18.1070 O   0  0  0  0  0  0  0  0  0  0  0  0
   50.6890   54.3070   19.2560 C   0  0  0  0  0  0  0  0  0  0  0  0
   50.1080   54.7750   20.5930 C   0  0  1  0  0  0  0  0  0  0  0  0
   51.2270   55.3470   21.4630 C   0  0  0  0  0  0  0  0  0  0  0  0
   49.0970   55.8120   20.3500 N   0  0  0  0  0  0  0  0  0  0  0  0
   48.1780   55.4270   20.5030 H   0  0  0  0  0  0  0  0  0  0  0  0
   49.2040   56.2820   18.9640 C   0  0  0  0  0  0  0  0  0  0  0  0
   48.1010   57.3050   18.6820 C   0  0  0  0  0  0  0  0  0  0  0  0
   48.2560   58.4920   19.6370 C   0  0  1  0  0  0  0  0  0  0  0  0
   47.1110   59.4820   19.4150 C   0  0  0  0  0  0  0  0  0  0  0  0
   48.2180   57.9800   21.0800 C   0  0  0  0  0  0  0  0  0  0  0  0
   49.3170   56.9320   21.2740 C   0  0  0  0  0  0  0  0  0  0  0  0
  1 16  1  0  0  0  0
  3  2  1  1  0  0  0
  3 15  1  0  0  0  0
  3  4  1  0  0  0  0
  5  6  1  0  0  0  0
  5  4  1  0  0  0  0
  6 12  1  6  0  0  0
  6 13  1  0  0  0  0
  7  6  1  0  0  0  0
  7  8  1  0  0  0  0
  8  1  1  0  0  0  0
  8  9  1  0  0  0  0
  9 10  2  0  0  0  0
 11  7  2  0  0  0  0
 12 15  1  0  0  0  0
 13  9  1  0  0  0  0
 13 14  1  0  0  0  0
 16 17  1  0  0  0  0
 17 20  1  0  0  0  0
 17 18  1  0  0  0  0
 19 16  2  0  0  0  0
 21 20  1  6  0  0  0
 21 22  1  0  0  0  0
 23 24  1  0  0  0  0
 23 21  1  0  0  0  0
 23 30  1  0  0  0  0
 25 23  1  0  0  0  0
 26 25  1  0  0  0  0
 26 27  1  0  0  0  0
 27 28  1  1  0  0  0
 27 29  1  0  0  0  0
 29 30  1  0  0  0  0
M  END
>  <MODEL>
5

>  <REMARK>
  Name = ZINC67272115
                            x       y       z     vdW  Elec       q    Type
                         _______ _______ _______ _____ _____    ______ ____

>  <TORSDO>
F 5

>  <minimizedAffinity>
-9.1713323697904841

$$$$
ZINC67272115
 OpenBabel10211216253D

 30 32  0  0  1  0  0  0  0  0999 V2000
   52.7420   51.3950   19.1940 C   0  0  0  0  0  0  0  0  0  0  0  0
   47.0060   48.7970   14.2640 C   0  0  0  0  0  0  0  0  0  0  0  0
   47.5910   49.3110   15.5810 C   0  0  1  0  0  0  0  0  0  0  0  0
   48.6620   48.3370   16.0770 C   0  0  0  0  0  0  0  0  0  0  0  0
   49.2390   48.8470   17.4010 C   0  0  0  0  0  0  0  0  0  0  0  0
   49.8430   50.2320   17.1940 C   0  0  2  0  0  0  0  0  0  0  0  0
   50.4500   50.7410   18.4810 C   0  0  0  0  0  0  0  0  0  0  0  0
   51.7620   50.9100   18.2190 N   0  0  0  0  0  0  0  0  0  0  0  0
   52.0590   50.5800   16.9560 C   0  0  0  0  0  0  0  0  0  0  0  0
   53.1770   50.6480   16.4830 O   0  0  0  0  0  0  0  0  0  0  0  0
   49.8780   50.9520   19.5290 O   0  0  0  0  0  0  0  0  0  0  0  0
   48.7910   51.2080   16.6790 C   0  0  0  0  0  0  0  0  0  0  0  0
   50.9790   50.1640   16.2660 N   0  0  0  0  0  0  0  0  0  0  0  0
   50.9570   49.8760   15.3400 H   0  0  0  0  0  0  0  0  0  0  0  0
   48.2150   50.6890   15.3580 C   0  0  0  0  0  0  0  0  0  0  0  0
   52.6730   52.8980   19.2700 C   0  0  0  0  0  0  0  0  0  0  0  0
   51.8380   53.4900   20.1470 N   0  0  0  0  0  0  0  0  0  0  0  0
   51.2830   52.9490   20.7290 H   0  0  0  0  0  0  0  0  0  0  0  0
   53.3670   53.5750   18.5410 O   0  0  0  0  0  0  0  0  0  0  0  0
   51.7700   54.9520   20.2200 C   0  0  0  0  0  0  0  0  0  0  0  0
   51.0300   55.3660   21.4940 C   0  0  1  0  0  0  0  0  0  0  0  0
   51.9390   56.2470   22.3500 C   0  0  0  0  0  0  0  0  0  0  0  0
   49.8190   56.1150   21.1350 N   0  0  0  0  0  0  0  0  0  0  0  0
   49.0040   55.5990   21.4300 H   0  0  0  0  0  0  0  0  0  0  0  0
   49.7740   56.3010   19.6800 C   0  0  0  0  0  0  0  0  0  0  0  0
   48.4750   57.0100   19.2920 C   0  0  0  0  0  0  0  0  0  0  0  0
   48.4180   58.3750   19.9840 C   0  0  1  0  0  0  0  0  0  0  0  0
   47.0860   59.0570   19.6640 C   0  0  0  0  0  0  0  0  0  0  0  0
   48.5400   58.1740   21.4970 C   0  0  0  0  0  0  0  0  0  0  0  0
   49.8370   57.4210   21.8040 C   0  0  0  0  0  0  0  0  0  0  0  0
  1 16  1  0  0  0  0
  3  2  1  6  0  0  0
  3  4  1  0  0  0  0
  4  5  1  0  0  0  0
  6 13  1  6  0  0  0
  6  5  1  0  0  0  0
  6  7  1  0  0  0  0
  7 11  2  0  0  0  0
  8  7  1  0  0  0  0
  8  1  1  0  0  0  0
  9  8  1  0  0  0  0
 10  9  2  0  0  0  0
 12  6  1  0  0  0  0
 13  9  1  0  0  0  0
 14 13  1  0  0  0  0
 15  3  1  0  0  0  0
 15 12  1  0  0  0  0
 16 17  1  0  0  0  0
 17 20  1  0  0  0  0
 17 18  1  0  0  0  0
 19 16  2  0  0  0  0
 21 20  1  6  0  0  0
 21 22  1  0  0  0  0
 23 24  1  0  0  0  0
 23 21  1  0  0  0  0
 23 30  1  0  0  0  0
 25 23  1  0  0  0  0
 26 25  1  0  0  0  0
 26 27  1  0  0  0  0
 27 28  1  1  0  0  0
 27 29  1  0  0  0  0
 29 30  1  0  0  0  0
M  END
>  <MODEL>
6

>  <REMARK>
  Name = ZINC67272115
                            x       y       z     vdW  Elec       q    Type
                         _______ _______ _______ _____ _____    ______ ____

>  <TORSDO>
F 5

>  <minimizedAffinity>
-8.8552100636974043

$$$$
ZINC67272115
 OpenBabel10211216253D

 30 32  0  0  1  0  0  0  0  0999 V2000
   51.8710   53.7150   20.3130 C   0  0  0  0  0  0  0  0  0  0  0  0
   47.0280   59.9970   19.2980 C   0  0  0  0  0  0  0  0  0  0  0  0
   47.3810   58.5280   19.5440 C   0  0  1  0  0  0  0  0  0  0  0  0
   48.1850   57.9930   18.3580 C   0  0  0  0  0  0  0  0  0  0  0  0
   48.5290   56.5200   18.6000 C   0  0  0  0  0  0  0  0  0  0  0  0
   49.3380   56.3900   19.8850 C   0  0  2  0  0  0  0  0  0  0  0  0
   49.7180   54.9480   20.1270 C   0  0  0  0  0  0  0  0  0  0  0  0
   51.0670   54.9230   20.1160 N   0  0  0  0  0  0  0  0  0  0  0  0
   51.5800   56.1410   19.9030 C   0  0  0  0  0  0  0  0  0  0  0  0
   52.7720   56.3740   19.8510 O   0  0  0  0  0  0  0  0  0  0  0  0
   48.9690   54.0090   20.2930 O   0  0  0  0  0  0  0  0  0  0  0  0
   48.5560   56.9410   21.0730 C   0  0  0  0  0  0  0  0  0  0  0  0
   50.6270   57.0820   19.7540 N   0  0  0  0  0  0  0  0  0  0  0  0
   50.7650   58.0280   19.5920 H   0  0  0  0  0  0  0  0  0  0  0  0
   48.2120   58.4120   20.8220 C   0  0  0  0  0  0  0  0  0  0  0  0
   51.7340   52.8180   19.1100 C   0  0  0  0  0  0  0  0  0  0  0  0
   50.8420   51.8080   19.1220 N   0  0  0  0  0  0  0  0  0  0  0  0
   50.2890   51.6580   19.9050 H   0  0  0  0  0  0  0  0  0  0  0  0
   52.4250   53.0060   18.1310 O   0  0  0  0  0  0  0  0  0  0  0  0
   50.7080   50.9350   17.9520 C   0  0  0  0  0  0  0  0  0  0  0  0
   49.4080   51.2640   17.2160 C   0  0  1  0  0  0  0  0  0  0  0  0
   49.5310   50.8450   15.7500 C   0  0  0  0  0  0  0  0  0  0  0  0
   48.2950   50.5370   17.8410 N   0  0  0  0  0  0  0  0  0  0  0  0
   47.9390   51.0720   18.6180 H   0  0  0  0  0  0  0  0  0  0  0  0
   48.7720   49.2360   18.3230 C   0  0  0  0  0  0  0  0  0  0  0  0
   47.6360   48.5080   19.0470 C   0  0  0  0  0  0  0  0  0  0  0  0
   46.4710   48.2980   18.0750 C   0  0  1  0  0  0  0  0  0  0  0  0
   45.3020   47.6420   18.8120 C   0  0  0  0  0  0  0  0  0  0  0  0
   46.0300   49.6560   17.5210 C   0  0  0  0  0  0  0  0  0  0  0  0
   47.2250   50.3420   16.8540 C   0  0  0  0  0  0  0  0  0  0  0  0
  3  2  1  6  0  0  0
  3 15  1  0  0  0  0
  4  5  1  0  0  0  0
  4  3  1  0  0  0  0
  6  5  1  6  0  0  0
  6  7  1  0  0  0  0
  6 12  1  0  0  0  0
  7 11  2  0  0  0  0
  8  7  1  0  0  0  0
  8  1  1  0  0  0  0
  9  8  1  0  0  0  0
 10  9  2  0  0  0  0
 13  6  1  0  0  0  0
 13  9  1  0  0  0  0
 14 13  1  0  0  0  0
 15 12  1  0  0  0  0
 16 17  1  0  0  0  0
 16  1  1  0  0  0  0
 17 18  1  0  0  0  0
 19 16  2  0  0  0  0
 20 17  1  0  0  0  0
 21 22  1  6  0  0  0
 21 23  1  0  0  0  0
 21 20  1  0  0  0  0
 23 25  1  0  0  0  0
 23 24  1  0  0  0  0
 25 26  1  0  0  0  0
 27 28  1  1  0  0  0
 27 26  1  0  0  0  0
 29 27  1  0  0  0  0
 30 29  1  0  0  0  0
 30 23  1  0  0  0  0
M  END
>  <MODEL>
7

>  <REMARK>
  Name = ZINC67272115
                            x       y       z     vdW  Elec       q    Type
                         _______ _______ _______ _____ _____    ______ ____

>  <TORSDO>
F 5

>  <minimizedAffinity>
-8.8278576984033794

$$$$
ZINC67272115
 OpenBabel10211216253D

 30 32  0  0  1  0  0  0  0  0999 V2000
   52.5610   54.0820   20.2820 C   0  0  0  0  0  0  0  0  0  0  0  0
   47.7470   49.5720   15.7620 C   0  0  0  0  0  0  0  0  0  0  0  0
   48.1260   50.4500   16.9570 C   0  0  1  0  0  0  0  0  0  0  0  0
   49.2760   49.7950   17.7250 C   0  0  0  0  0  0  0  0  0  0  0  0
   49.6480   50.6690   18.9260 C   0  0  0  0  0  0  0  0  0  0  0  0
   50.0600   52.0540   18.4410 C   0  0  2  0  0  0  0  0  0  0  0  0
   50.4650   52.9240   19.6080 C   0  0  0  0  0  0  0  0  0  0  0  0
   51.7580   53.2420   19.3910 N   0  0  0  0  0  0  0  0  0  0  0  0
   52.2150   52.6970   18.2570 C   0  0  0  0  0  0  0  0  0  0  0  0
   53.3500   52.8410   17.8470 O   0  0  0  0  0  0  0  0  0  0  0  0
   49.7730   53.2630   20.5450 O   0  0  0  0  0  0  0  0  0  0  0  0
   48.9300   52.7100   17.6550 C   0  0  0  0  0  0  0  0  0  0  0  0
   51.2760   51.9710   17.6200 N   0  0  0  0  0  0  0  0  0  0  0  0
   51.3820   51.4880   16.7860 H   0  0  0  0  0  0  0  0  0  0  0  0
   48.5620   51.8280   16.4580 C   0  0  0  0  0  0  0  0  0  0  0  0
   52.0220   55.4890   20.2690 C   0  0  0  0  0  0  0  0  0  0  0  0
   51.4250   55.9920   21.3680 N   0  0  0  0  0  0  0  0  0  0  0  0
   51.3430   55.4480   22.1670 H   0  0  0  0  0  0  0  0  0  0  0  0
   52.1250   56.1680   19.2690 O   0  0  0  0  0  0  0  0  0  0  0  0
   50.9000   57.3590   21.3550 C   0  0  0  0  0  0  0  0  0  0  0  0
   49.3850   57.3230   21.1430 C   0  0  1  0  0  0  0  0  0  0  0  0
   48.7250   58.4130   21.9880 C   0  0  0  0  0  0  0  0  0  0  0  0
   49.0840   57.5540   19.7240 N   0  0  0  0  0  0  0  0  0  0  0  0
   49.9070   57.9070   19.2590 H   0  0  0  0  0  0  0  0  0  0  0  0
   48.0000   58.5360   19.6090 C   0  0  0  0  0  0  0  0  0  0  0  0
   47.7380   58.8410   18.1320 C   0  0  0  0  0  0  0  0  0  0  0  0
   47.3360   57.5500   17.4130 C   0  0  1  0  0  0  0  0  0  0  0  0
   47.1480   57.8310   15.9210 C   0  0  0  0  0  0  0  0  0  0  0  0
   48.4410   56.5070   17.6030 C   0  0  0  0  0  0  0  0  0  0  0  0
   48.6780   56.2880   19.0990 C   0  0  0  0  0  0  0  0  0  0  0  0
  3  2  1  6  0  0  0
  3  4  1  0  0  0  0
  4  5  1  0  0  0  0
  6 13  1  6  0  0  0
  6  5  1  0  0  0  0
  6  7  1  0  0  0  0
  7 11  2  0  0  0  0
  8  7  1  0  0  0  0
  8  1  1  0  0  0  0
  9  8  1  0  0  0  0
 10  9  2  0  0  0  0
 12  6  1  0  0  0  0
 13  9  1  0  0  0  0
 14 13  1  0  0  0  0
 15  3  1  0  0  0  0
 15 12  1  0  0  0  0
 16  1  1  0  0  0  0
 16 17  1  0  0  0  0
 17 18  1  0  0  0  0
 19 16  2  0  0  0  0
 20 17  1  0  0  0  0
 21 23  1  6  0  0  0
 21 20  1  0  0  0  0
 21 22  1  0  0  0  0
 24 23  1  0  0  0  0
 25 23  1  0  0  0  0
 26 25  1  0  0  0  0
 27 28  1  6  0  0  0
 27 29  1  0  0  0  0
 27 26  1  0  0  0  0
 29 30  1  0  0  0  0
 30 23  1  0  0  0  0
M  END
>  <MODEL>
8

>  <REMARK>
  Name = ZINC67272115
                            x       y       z     vdW  Elec       q    Type
                         _______ _______ _______ _____ _____    ______ ____

>  <TORSDO>
F 5

>  <minimizedAffinity>
-8.7503471489189018

$$$$
ZINC67272115
 OpenBabel10211216253D

 30 32  0  0  1  0  0  0  0  0999 V2000
   51.6310   50.8590   17.6730 C   0  0  0  0  0  0  0  0  0  0  0  0
   44.3470   47.6380   16.9520 C   0  0  0  0  0  0  0  0  0  0  0  0
   45.5560   48.4730   16.5240 C   0  0  1  0  0  0  0  0  0  0  0  0
   45.7940   49.5860   17.5460 C   0  0  0  0  0  0  0  0  0  0  0  0
   46.9970   50.4270   17.1110 C   0  0  0  0  0  0  0  0  0  0  0  0
   48.2300   49.5370   17.0060 C   0  0  2  0  0  0  0  0  0  0  0  0
   49.4390   50.3530   16.6100 C   0  0  0  0  0  0  0  0  0  0  0  0
   50.3100   50.2260   17.6330 N   0  0  0  0  0  0  0  0  0  0  0  0
   49.8190   49.4490   18.6050 C   0  0  0  0  0  0  0  0  0  0  0  0
   50.4190   49.1860   19.6290 O   0  0  0  0  0  0  0  0  0  0  0  0
   49.5930   50.9900   15.5900 O   0  0  0  0  0  0  0  0  0  0  0  0
   47.9990   48.4100   16.0060 C   0  0  0  0  0  0  0  0  0  0  0  0
   48.5840   48.9910   18.3230 N   0  0  0  0  0  0  0  0  0  0  0  0
   48.0370   48.4150   18.8790 H   0  0  0  0  0  0  0  0  0  0  0  0
   46.7920   47.5760   16.4450 C   0  0  0  0  0  0  0  0  0  0  0  0
   51.5640   52.1080   18.5140 C   0  0  0  0  0  0  0  0  0  0  0  0
   50.5510   52.2790   19.3860 N   0  0  0  0  0  0  0  0  0  0  0  0
   49.8650   51.5980   19.4720 H   0  0  0  0  0  0  0  0  0  0  0  0
   52.4220   52.9590   18.4050 O   0  0  0  0  0  0  0  0  0  0  0  0
   50.4850   53.4930   20.2030 C   0  0  0  0  0  0  0  0  0  0  0  0
   49.9660   54.6540   19.3510 C   0  0  1  0  0  0  0  0  0  0  0  0
   48.4580   54.8050   19.5580 C   0  0  0  0  0  0  0  0  0  0  0  0
   50.6420   55.8950   19.7510 N   0  0  0  0  0  0  0  0  0  0  0  0
   50.5180   56.5920   19.0320 H   0  0  0  0  0  0  0  0  0  0  0  0
   52.0740   55.6330   19.9330 C   0  0  0  0  0  0  0  0  0  0  0  0
   52.7970   56.9390   20.2710 C   0  0  0  0  0  0  0  0  0  0  0  0
   52.2150   57.5180   21.5640 C   0  0  1  0  0  0  0  0  0  0  0  0
   52.8770   58.8640   21.8660 C   0  0  0  0  0  0  0  0  0  0  0  0
   50.7070   57.7180   21.3880 C   0  0  0  0  0  0  0  0  0  0  0  0
   50.0610   56.3830   21.0080 C   0  0  0  0  0  0  0  0  0  0  0  0
  1 16  1  0  0  0  0
  3  2  1  1  0  0  0
  3  4  1  0  0  0  0
  5  4  1  0  0  0  0
  6 12  1  6  0  0  0
  6  5  1  0  0  0  0
  6 13  1  0  0  0  0
  7  6  1  0  0  0  0
  7  8  1  0  0  0  0
  8  1  1  0  0  0  0
  8  9  1  0  0  0  0
  9 10  2  0  0  0  0
 11  7  2  0  0  0  0
 12 15  1  0  0  0  0
 13  9  1  0  0  0  0
 13 14  1  0  0  0  0
 15  3  1  0  0  0  0
 16 17  1  0  0  0  0
 17 18  1  0  0  0  0
 17 20  1  0  0  0  0
 19 16  2  0  0  0  0
 21 22  1  1  0  0  0
 21 23  1  0  0  0  0
 21 20  1  0  0  0  0
 23 25  1  0  0  0  0
 23 30  1  0  0  0  0
 24 23  1  0  0  0  0
 25 26  1  0  0  0  0
 26 27  1  0  0  0  0
 27 28  1  6  0  0  0
 29 27  1  0  0  0  0
 30 29  1  0  0  0  0
M  END
>  <MODEL>
9

>  <REMARK>
  Name = ZINC67272115
                            x       y       z     vdW  Elec       q    Type
                         _______ _______ _______ _____ _____    ______ ____

>  <TORSDO>
F 5

>  <minimizedAffinity>
-8.3894678836585239

$$$$
ZINC23186726
 OpenBabel10211216303D

 40 42  0  0  0  0  0  0  0  0999 V2000
   48.5500   50.5860   17.0550 N   0  0  0  0  0  0  0  0  0  0  0  0
   49.7280   53.6450   18.7070 N   0  0  0  0  0  0  0  0  0  0  0  0
   49.0040   52.8080   17.8890 C   0  0  0  0  0  0  0  0  0  0  0  0
   49.2790   51.4670   17.8870 C   0  0  0  0  0  0  0  0  0  0  0  0
   50.2930   50.9790   18.7290 C   0  0  0  0  0  0  0  0  0  0  0  0
   50.9810   51.8350   19.5100 N   0  0  0  0  0  0  0  0  0  0  0  0
   51.7820   51.4610   20.1640 H   0  0  0  0  0  0  0  0  0  0  0  0
   50.5530   49.7870   18.7490 O   0  0  0  0  0  0  0  0  0  0  0  0
   50.6970   53.1500   19.4990 C   0  0  0  0  0  0  0  0  0  0  0  0
   51.3270   53.9040   20.2160 O   0  0  0  0  0  0  0  0  0  0  0  0
   48.0130   53.3150   17.0780 N   0  0  0  0  0  0  0  0  0  0  0  0
   47.8610   54.4030   17.0110 H   0  0  0  0  0  0  0  0  0  0  0  0
   47.3740   52.6330   16.5000 H   0  0  0  0  0  0  0  0  0  0  0  0
   49.4410   55.0810   18.7160 C   0  0  0  0  0  0  0  0  0  0  0  0
   48.4090   55.3890   19.8030 C   0  0  0  0  0  0  0  0  0  0  0  0
   47.7710   57.7200   20.4380 C   0  0  0  0  0  0  0  0  0  0  0  0
   48.8410   56.6350   20.5790 C   0  0  0  0  0  0  0  0  0  0  0  0
   49.0160   50.6680   15.6640 C   0  0  0  0  0  0  0  0  0  0  0  0
   49.0770   49.2840   15.0720 C   0  0  0  0  0  0  0  0  0  0  0  0
   50.1460   48.8090   14.7460 O   0  0  0  0  0  0  0  0  0  0  0  0
   47.8880   48.5370   14.8960 C   0  0  0  0  0  0  0  0  0  0  0  0
   47.5660   47.3620   15.5430 C   0  0  0  0  0  0  0  0  0  0  0  0
   48.4080   46.6390   16.5620 C   0  0  0  0  0  0  0  0  0  0  0  0
   46.2960   46.9700   15.0690 C   0  0  0  0  0  0  0  0  0  0  0  0
   45.8950   47.9170   14.1430 C   0  0  0  0  0  0  0  0  0  0  0  0
   44.5980   47.8990   13.3750 C   0  0  0  0  0  0  0  0  0  0  0  0
   46.8500   48.8530   14.0440 N   0  0  0  0  0  0  0  0  0  0  0  0
   46.9050   49.7590   13.4220 H   0  0  0  0  0  0  0  0  0  0  0  0
   45.5420   45.7730   15.4790 C   0  0  0  0  0  0  0  0  0  0  0  0
   44.4370   45.8910   15.9730 O   0  0  0  0  0  0  0  0  0  0  0  0
   46.0770   44.5490   15.3090 O   0  0  0  0  0  0  0  0  0  0  0  0
   45.2110   43.5220   14.7580 C   0  0  0  0  0  0  0  0  0  0  0  0
   44.9880   43.7880   13.2670 C   0  0  0  0  0  0  0  0  0  0  0  0
   47.1070   50.8520   17.1430 C   0  0  0  0  0  0  0  0  0  0  0  0
   46.4180   49.6720   17.7780 C   0  0  0  0  0  0  0  0  0  0  0  0
   47.0920   48.8920   18.6990 C   0  0  0  0  0  0  0  0  0  0  0  0
   46.4590   47.8100   19.2820 C   0  0  0  0  0  0  0  0  0  0  0  0
   45.1530   47.5080   18.9430 C   0  0  0  0  0  0  0  0  0  0  0  0
   44.4790   48.2880   18.0220 C   0  0  0  0  0  0  0  0  0  0  0  0
   45.1120   49.3700   17.4400 C   0  0  0  0  0  0  0  0  0  0  0  0
  1 34  1  0  0  0  0
  1  4  1  0  0  0  0
  2 14  1  0  0  0  0
  2  9  1  0  0  0  0
  3  2  1  0  0  0  0
  4  3  2  0  0  0  0
  4  5  1  0  0  0  0
  5  8  2  0  0  0  0
  5  6  1  0  0  0  0
  6  7  1  0  0  0  0
  9  6  1  0  0  0  0
  9 10  2  0  0  0  0
 11  3  1  0  0  0  0
 12 11  1  0  0  0  0
 13 11  1  0  0  0  0
 14 15  1  0  0  0  0
 15 17  1  0  0  0  0
 16 17  1  0  0  0  0
 18  1  1  0  0  0  0
 19 18  1  0  0  0  0
 20 19  2  0  0  0  0
 21 19  1  0  0  0  0
 21 22  2  0  0  0  0
 22 23  1  0  0  0  0
 24 29  1  0  0  0  0
 24 22  1  0  0  0  0
 25 24  2  0  0  0  0
 26 25  1  0  0  0  0
 27 25  1  0  0  0  0
 27 21  1  0  0  0  0
 28 27  1  0  0  0  0
 29 30  2  0  0  0  0
 31 29  1  0  0  0  0
 32 31  1  0  0  0  0
 33 32  1  0  0  0  0
 34 35  1  0  0  0  0
 35 36  1  0  0  0  0
 36 37  2  0  0  0  0
 38 37  1  0  0  0  0
 39 38  2  0  0  0  0
 40 35  2  0  0  0  0
 40 39  1  0  0  0  0
M  END
>  <MODEL>
1

>  <REMARK>
  Name = ZINC23186726
                            x       y       z     vdW  Elec       q    Type
                         _______ _______ _______ _____ _____    ______ ____

>  <TORSDO>
F 13

>  <minimizedAffinity>
-8.2775130602642442

$$$$
ZINC23186726
 OpenBabel10211216303D

 40 42  0  0  0  0  0  0  0  0999 V2000
   48.2610   50.6470   16.8760 N   0  0  0  0  0  0  0  0  0  0  0  0
   50.8330   52.4110   18.8100 N   0  0  0  0  0  0  0  0  0  0  0  0
   50.1060   51.3860   18.2490 C   0  0  0  0  0  0  0  0  0  0  0  0
   49.0250   51.6810   17.4640 C   0  0  0  0  0  0  0  0  0  0  0  0
   48.6890   53.0290   17.2460 C   0  0  0  0  0  0  0  0  0  0  0  0
   49.4250   54.0010   17.8200 N   0  0  0  0  0  0  0  0  0  0  0  0
   49.1620   55.0570   17.6620 H   0  0  0  0  0  0  0  0  0  0  0  0
   47.7320   53.3180   16.5450 O   0  0  0  0  0  0  0  0  0  0  0  0
   50.4850   53.6920   18.5890 C   0  0  0  0  0  0  0  0  0  0  0  0
   51.1390   54.5850   19.0930 O   0  0  0  0  0  0  0  0  0  0  0  0
   50.4620   50.0760   18.4760 N   0  0  0  0  0  0  0  0  0  0  0  0
   50.9440   49.7940   19.4250 H   0  0  0  0  0  0  0  0  0  0  0  0
   50.2670   49.3120   17.7100 H   0  0  0  0  0  0  0  0  0  0  0  0
   51.9920   52.1050   19.6520 C   0  0  0  0  0  0  0  0  0  0  0  0
   51.5190   51.4500   20.9510 C   0  0  0  0  0  0  0  0  0  0  0  0
   51.6530   53.5800   22.2510 C   0  0  0  0  0  0  0  0  0  0  0  0
   50.7210   52.4640   21.7740 C   0  0  0  0  0  0  0  0  0  0  0  0
   48.5410   50.5380   15.4370 C   0  0  0  0  0  0  0  0  0  0  0  0
   48.6630   49.0850   15.0570 C   0  0  0  0  0  0  0  0  0  0  0  0
   49.7610   48.5790   14.9390 O   0  0  0  0  0  0  0  0  0  0  0  0
   47.4990   48.3110   14.8390 C   0  0  0  0  0  0  0  0  0  0  0  0
   47.1840   47.1270   15.4720 C   0  0  0  0  0  0  0  0  0  0  0  0
   48.0070   46.4200   16.5180 C   0  0  0  0  0  0  0  0  0  0  0  0
   45.9400   46.7060   14.9530 C   0  0  0  0  0  0  0  0  0  0  0  0
   45.5490   47.6460   14.0160 C   0  0  0  0  0  0  0  0  0  0  0  0
   44.2800   47.6000   13.2040 C   0  0  0  0  0  0  0  0  0  0  0  0
   46.4840   48.6040   13.9520 N   0  0  0  0  0  0  0  0  0  0  0  0
   46.5390   49.5130   13.3350 H   0  0  0  0  0  0  0  0  0  0  0  0
   45.2010   45.4900   15.3350 C   0  0  0  0  0  0  0  0  0  0  0  0
   44.1070   45.5830   15.8560 O   0  0  0  0  0  0  0  0  0  0  0  0
   45.7380   44.2760   15.1070 O   0  0  0  0  0  0  0  0  0  0  0  0
   44.9680   43.3580   14.2860 C   0  0  0  0  0  0  0  0  0  0  0  0
   45.0350   43.8030   12.8230 C   0  0  0  0  0  0  0  0  0  0  0  0
   46.8260   50.8480   17.1190 C   0  0  0  0  0  0  0  0  0  0  0  0
   46.2490   49.6150   17.7660 C   0  0  0  0  0  0  0  0  0  0  0  0
   47.0000   48.8980   18.6790 C   0  0  0  0  0  0  0  0  0  0  0  0
   46.4710   47.7680   19.2730 C   0  0  0  0  0  0  0  0  0  0  0  0
   45.1920   47.3540   18.9540 C   0  0  0  0  0  0  0  0  0  0  0  0
   44.4400   48.0710   18.0400 C   0  0  0  0  0  0  0  0  0  0  0  0
   44.9700   49.2010   17.4470 C   0  0  0  0  0  0  0  0  0  0  0  0
  1 34  1  0  0  0  0
  1  4  1  0  0  0  0
  2 14  1  0  0  0  0
  3 11  1  0  0  0  0
  3  2  1  0  0  0  0
  4  3  2  0  0  0  0
  5  4  1  0  0  0  0
  5  6  1  0  0  0  0
  6  9  1  0  0  0  0
  7  6  1  0  0  0  0
  8  5  2  0  0  0  0
  9  2  1  0  0  0  0
  9 10  2  0  0  0  0
 11 12  1  0  0  0  0
 13 11  1  0  0  0  0
 14 15  1  0  0  0  0
 15 17  1  0  0  0  0
 17 16  1  0  0  0  0
 18  1  1  0  0  0  0
 19 18  1  0  0  0  0
 20 19  2  0  0  0  0
 21 19  1  0  0  0  0
 21 22  2  0  0  0  0
 22 23  1  0  0  0  0
 24 29  1  0  0  0  0
 24 22  1  0  0  0  0
 25 24  2  0  0  0  0
 26 25  1  0  0  0  0
 27 25  1  0  0  0  0
 27 21  1  0  0  0  0
 28 27  1  0  0  0  0
 29 30  2  0  0  0  0
 31 29  1  0  0  0  0
 32 31  1  0  0  0  0
 33 32  1  0  0  0  0
 34 35  1  0  0  0  0
 35 36  1  0  0  0  0
 36 37  2  0  0  0  0
 38 37  1  0  0  0  0
 39 38  2  0  0  0  0
 40 35  2  0  0  0  0
 40 39  1  0  0  0  0
M  END
>  <MODEL>
2

>  <REMARK>
  Name = ZINC23186726
                            x       y       z     vdW  Elec       q    Type
                         _______ _______ _______ _____ _____    ______ ____

>  <TORSDO>
F 13

>  <minimizedAffinity>
-8.183823361034106

$$$$
ZINC23186726
 OpenBabel10211216303D

 40 42  0  0  0  0  0  0  0  0999 V2000
   48.7220   50.6870   17.1430 N   0  0  0  0  0  0  0  0  0  0  0  0
   49.8680   53.6960   18.9040 N   0  0  0  0  0  0  0  0  0  0  0  0
   49.1910   52.8890   18.0190 C   0  0  0  0  0  0  0  0  0  0  0  0
   49.4050   51.5380   18.0420 C   0  0  0  0  0  0  0  0  0  0  0  0
   50.3100   51.0080   18.9790 C   0  0  0  0  0  0  0  0  0  0  0  0
   50.9550   51.8350   19.8250 N   0  0  0  0  0  0  0  0  0  0  0  0
   51.6710   51.4290   20.5530 H   0  0  0  0  0  0  0  0  0  0  0  0
   50.5130   49.8050   19.0240 O   0  0  0  0  0  0  0  0  0  0  0  0
   50.7320   53.1620   19.7870 C   0  0  0  0  0  0  0  0  0  0  0  0
   51.3220   53.8900   20.5630 O   0  0  0  0  0  0  0  0  0  0  0  0
   48.3080   53.4360   17.1160 N   0  0  0  0  0  0  0  0  0  0  0  0
   47.2260   53.4020   17.3150 H   0  0  0  0  0  0  0  0  0  0  0  0
   48.6820   53.9060   16.1950 H   0  0  0  0  0  0  0  0  0  0  0  0
   49.6460   55.1430   18.8860 C   0  0  0  0  0  0  0  0  0  0  0  0
   48.4670   55.4900   19.7980 C   0  0  0  0  0  0  0  0  0  0  0  0
   47.7080   57.7200   20.6330 C   0  0  0  0  0  0  0  0  0  0  0  0
   48.8370   56.6870   20.6770 C   0  0  0  0  0  0  0  0  0  0  0  0
   49.2700   50.8070   15.7850 C   0  0  0  0  0  0  0  0  0  0  0  0
   49.4640   49.4340   15.1970 C   0  0  0  0  0  0  0  0  0  0  0  0
   50.5510   49.1070   14.7630 O   0  0  0  0  0  0  0  0  0  0  0  0
   48.3810   48.5240   15.1520 C   0  0  0  0  0  0  0  0  0  0  0  0
   47.2920   48.6040   14.3100 C   0  0  0  0  0  0  0  0  0  0  0  0
   47.0330   49.6660   13.2730 C   0  0  0  0  0  0  0  0  0  0  0  0
   46.4670   47.4970   14.6040 C   0  0  0  0  0  0  0  0  0  0  0  0
   47.0820   46.7890   15.6220 C   0  0  0  0  0  0  0  0  0  0  0  0
   46.5520   45.5300   16.2590 C   0  0  0  0  0  0  0  0  0  0  0  0
   48.2270   47.4070   15.9450 N   0  0  0  0  0  0  0  0  0  0  0  0
   48.9890   47.1570   16.6980 H   0  0  0  0  0  0  0  0  0  0  0  0
   45.1890   47.1620   13.9530 C   0  0  0  0  0  0  0  0  0  0  0  0
   44.1530   47.6480   14.3620 O   0  0  0  0  0  0  0  0  0  0  0  0
   45.1690   46.3160   12.9050 O   0  0  0  0  0  0  0  0  0  0  0  0
   44.4560   46.7540   11.7180 C   0  0  0  0  0  0  0  0  0  0  0  0
   45.4280   47.4630   10.7720 C   0  0  0  0  0  0  0  0  0  0  0  0
   47.2790   50.9590   17.1540 C   0  0  0  0  0  0  0  0  0  0  0  0
   46.5490   49.7720   17.7270 C   0  0  0  0  0  0  0  0  0  0  0  0
   45.2550   49.4960   17.3230 C   0  0  0  0  0  0  0  0  0  0  0  0
   44.5850   48.4070   17.8480 C   0  0  0  0  0  0  0  0  0  0  0  0
   45.2080   47.5940   18.7760 C   0  0  0  0  0  0  0  0  0  0  0  0
   46.5020   47.8700   19.1800 C   0  0  0  0  0  0  0  0  0  0  0  0
   47.1720   48.9590   18.6550 C   0  0  0  0  0  0  0  0  0  0  0  0
  1 34  1  0  0  0  0
  1  4  1  0  0  0  0
  2  9  1  0  0  0  0
  3  4  2  0  0  0  0
  3  2  1  0  0  0  0
  4  5  1  0  0  0  0
  5  8  2  0  0  0  0
  5  6  1  0  0  0  0
  6  7  1  0  0  0  0
  9  6  1  0  0  0  0
  9 10  2  0  0  0  0
 11 12  1  0  0  0  0
 11  3  1  0  0  0  0
 13 11  1  0  0  0  0
 14  2  1  0  0  0  0
 14 15  1  0  0  0  0
 15 17  1  0  0  0  0
 16 17  1  0  0  0  0
 18  1  1  0  0  0  0
 19 18  1  0  0  0  0
 20 19  2  0  0  0  0
 21 19  1  0  0  0  0
 21 27  1  0  0  0  0
 22 24  1  0  0  0  0
 22 21  2  0  0  0  0
 23 22  1  0  0  0  0
 24 25  2  0  0  0  0
 25 27  1  0  0  0  0
 25 26  1  0  0  0  0
 27 28  1  0  0  0  0
 29 30  2  0  0  0  0
 29 24  1  0  0  0  0
 31 29  1  0  0  0  0
 32 31  1  0  0  0  0
 33 32  1  0  0  0  0
 34 35  1  0  0  0  0
 35 40  1  0  0  0  0
 36 35  2  0  0  0  0
 36 37  1  0  0  0  0
 37 38  2  0  0  0  0
 38 39  1  0  0  0  0
 40 39  2  0  0  0  0
M  END
>  <MODEL>
3

>  <REMARK>
  Name = ZINC23186726
                            x       y       z     vdW  Elec       q    Type
                         _______ _______ _______ _____ _____    ______ ____

>  <TORSDO>
F 13

>  <minimizedAffinity>
-8.1561821512658774

$$$$
ZINC23186726
 OpenBabel10211216303D

 40 42  0  0  0  0  0  0  0  0999 V2000
   50.9460   54.8190   19.9070 N   0  0  0  0  0  0  0  0  0  0  0  0
   50.6980   51.1630   19.6920 N   0  0  0  0  0  0  0  0  0  0  0  0
   50.7180   52.4880   19.3170 C   0  0  0  0  0  0  0  0  0  0  0  0
   50.9210   53.4520   20.2670 C   0  0  0  0  0  0  0  0  0  0  0  0
   51.1110   53.0610   21.6040 C   0  0  0  0  0  0  0  0  0  0  0  0
   51.0790   51.7530   21.9280 N   0  0  0  0  0  0  0  0  0  0  0  0
   51.2170   51.4420   22.9730 H   0  0  0  0  0  0  0  0  0  0  0  0
   51.3000   53.9020   22.4680 O   0  0  0  0  0  0  0  0  0  0  0  0
   50.8780   50.8200   20.9800 C   0  0  0  0  0  0  0  0  0  0  0  0
   50.8570   49.6440   21.2940 O   0  0  0  0  0  0  0  0  0  0  0  0
   50.5340   52.8390   17.9990 N   0  0  0  0  0  0  0  0  0  0  0  0
   50.3600   53.8930   17.7300 H   0  0  0  0  0  0  0  0  0  0  0  0
   50.5580   52.0690   17.2160 H   0  0  0  0  0  0  0  0  0  0  0  0
   50.4810   50.1250   18.6830 C   0  0  0  0  0  0  0  0  0  0  0  0
   48.9890   50.0350   18.3560 C   0  0  0  0  0  0  0  0  0  0  0  0
   46.9420   48.6130   18.5380 C   0  0  0  0  0  0  0  0  0  0  0  0
   48.4340   48.7030   18.8660 C   0  0  0  0  0  0  0  0  0  0  0  0
   50.0310   55.0870   18.7890 C   0  0  0  0  0  0  0  0  0  0  0  0
   48.7300   55.6290   19.3210 C   0  0  0  0  0  0  0  0  0  0  0  0
   48.1620   55.0580   20.2310 O   0  0  0  0  0  0  0  0  0  0  0  0
   48.1710   56.8030   18.7630 C   0  0  0  0  0  0  0  0  0  0  0  0
   47.9910   58.0040   19.4160 C   0  0  0  0  0  0  0  0  0  0  0  0
   48.3510   58.3110   20.8460 C   0  0  0  0  0  0  0  0  0  0  0  0
   47.4090   58.8910   18.4850 C   0  0  0  0  0  0  0  0  0  0  0  0
   47.2470   58.1920   17.3010 C   0  0  0  0  0  0  0  0  0  0  0  0
   46.6550   58.7450   16.0300 C   0  0  0  0  0  0  0  0  0  0  0  0
   47.7060   56.9440   17.4720 N   0  0  0  0  0  0  0  0  0  0  0  0
   47.7510   56.0950   16.7740 H   0  0  0  0  0  0  0  0  0  0  0  0
   47.0380   60.2950   18.7310 C   0  0  0  0  0  0  0  0  0  0  0  0
   47.7380   61.1920   18.3040 O   0  0  0  0  0  0  0  0  0  0  0  0
   45.9230   60.5840   19.4290 O   0  0  0  0  0  0  0  0  0  0  0  0
   45.0050   61.5420   18.8390 C   0  0  0  0  0  0  0  0  0  0  0  0
   45.0680   62.8570   19.6190 C   0  0  0  0  0  0  0  0  0  0  0  0
   52.3120   55.2540   19.5860 C   0  0  0  0  0  0  0  0  0  0  0  0
   52.6370   56.5020   20.3650 C   0  0  0  0  0  0  0  0  0  0  0  0
   51.6640   57.1060   21.1410 C   0  0  0  0  0  0  0  0  0  0  0  0
   51.9630   58.2510   21.8550 C   0  0  0  0  0  0  0  0  0  0  0  0
   53.2330   58.7920   21.7950 C   0  0  0  0  0  0  0  0  0  0  0  0
   54.2060   58.1890   21.0190 C   0  0  0  0  0  0  0  0  0  0  0  0
   53.9070   57.0440   20.3040 C   0  0  0  0  0  0  0  0  0  0  0  0
  1  4  1  0  0  0  0
  2  9  1  0  0  0  0
  3  2  1  0  0  0  0
  3  4  2  0  0  0  0
  4  5  1  0  0  0  0
  5  6  1  0  0  0  0
  5  8  2  0  0  0  0
  6  7  1  0  0  0  0
  9 10  2  0  0  0  0
  9  6  1  0  0  0  0
 11  3  1  0  0  0  0
 12 11  1  0  0  0  0
 13 11  1  0  0  0  0
 14  2  1  0  0  0  0
 15 14  1  0  0  0  0
 15 17  1  0  0  0  0
 16 17  1  0  0  0  0
 18 19  1  0  0  0  0
 18  1  1  0  0  0  0
 19 20  2  0  0  0  0
 21 19  1  0  0  0  0
 21 22  2  0  0  0  0
 22 23  1  0  0  0  0
 24 29  1  0  0  0  0
 24 22  1  0  0  0  0
 25 27  1  0  0  0  0
 25 24  2  0  0  0  0
 26 25  1  0  0  0  0
 27 21  1  0  0  0  0
 28 27  1  0  0  0  0
 29 31  1  0  0  0  0
 30 29  2  0  0  0  0
 32 31  1  0  0  0  0
 32 33  1  0  0  0  0
 34  1  1  0  0  0  0
 34 35  1  0  0  0  0
 35 36  1  0  0  0  0
 36 37  2  0  0  0  0
 38 37  1  0  0  0  0
 39 38  2  0  0  0  0
 40 35  2  0  0  0  0
 40 39  1  0  0  0  0
M  END
>  <MODEL>
4

>  <REMARK>
  Name = ZINC23186726
                            x       y       z     vdW  Elec       q    Type
                         _______ _______ _______ _____ _____    ______ ____

>  <TORSDO>
F 13

>  <minimizedAffinity>
-8.0425751708984166

$$$$
ZINC23186726
 OpenBabel10211216303D

 40 42  0  0  0  0  0  0  0  0999 V2000
   48.9880   50.8660   16.9120 N   0  0  0  0  0  0  0  0  0  0  0  0
   46.2140   48.7490   15.7740 N   0  0  0  0  0  0  0  0  0  0  0  0
   46.9780   49.5700   16.5720 C   0  0  0  0  0  0  0  0  0  0  0  0
   48.1840   50.0220   16.1110 C   0  0  0  0  0  0  0  0  0  0  0  0
   48.6090   49.6400   14.8260 C   0  0  0  0  0  0  0  0  0  0  0  0
   47.8310   48.8310   14.0810 N   0  0  0  0  0  0  0  0  0  0  0  0
   48.1620   48.5200   13.0790 H   0  0  0  0  0  0  0  0  0  0  0  0
   49.6780   50.0360   14.3910 O   0  0  0  0  0  0  0  0  0  0  0  0
   46.6480   48.3960   14.5510 C   0  0  0  0  0  0  0  0  0  0  0  0
   45.9600   47.6690   13.8590 O   0  0  0  0  0  0  0  0  0  0  0  0
   46.5330   49.9310   17.8240 N   0  0  0  0  0  0  0  0  0  0  0  0
   46.0190   49.1930   18.4590 H   0  0  0  0  0  0  0  0  0  0  0  0
   46.6900   50.9560   18.1890 H   0  0  0  0  0  0  0  0  0  0  0  0
   44.9220   48.2600   16.2590 C   0  0  0  0  0  0  0  0  0  0  0  0
   45.1500   47.2250   17.3640 C   0  0  0  0  0  0  0  0  0  0  0  0
   44.8700   46.9830   19.8350 C   0  0  0  0  0  0  0  0  0  0  0  0
   44.2440   47.5430   18.5560 C   0  0  0  0  0  0  0  0  0  0  0  0
   48.8610   52.2690   16.4900 C   0  0  0  0  0  0  0  0  0  0  0  0
   48.1880   53.0620   17.5800 C   0  0  0  0  0  0  0  0  0  0  0  0
   46.9770   53.0720   17.6640 O   0  0  0  0  0  0  0  0  0  0  0  0
   48.9680   53.7960   18.5050 C   0  0  0  0  0  0  0  0  0  0  0  0
   49.2170   55.1520   18.4600 C   0  0  0  0  0  0  0  0  0  0  0  0
   48.7130   56.1230   17.4240 C   0  0  0  0  0  0  0  0  0  0  0  0
   50.0310   55.4550   19.5720 C   0  0  0  0  0  0  0  0  0  0  0  0
   50.2560   54.2690   20.2490 C   0  0  0  0  0  0  0  0  0  0  0  0
   51.0810   54.1160   21.5010 C   0  0  0  0  0  0  0  0  0  0  0  0
   49.6170   53.2800   19.6080 N   0  0  0  0  0  0  0  0  0  0  0  0
   49.5530   52.2040   19.8300 H   0  0  0  0  0  0  0  0  0  0  0  0
   50.5490   56.7840   19.9390 C   0  0  0  0  0  0  0  0  0  0  0  0
   51.7480   56.9760   19.9880 O   0  0  0  0  0  0  0  0  0  0  0  0
   49.6930   57.7850   20.2220 O   0  0  0  0  0  0  0  0  0  0  0  0
   48.6600   57.5120   21.2040 C   0  0  0  0  0  0  0  0  0  0  0  0
   47.2980   57.9220   20.6400 C   0  0  0  0  0  0  0  0  0  0  0  0
   50.3920   50.4340   16.8880 C   0  0  0  0  0  0  0  0  0  0  0  0
   50.9580   50.4900   18.2830 C   0  0  0  0  0  0  0  0  0  0  0  0
   52.1290   51.1840   18.5270 C   0  0  0  0  0  0  0  0  0  0  0  0
   52.6480   51.2360   19.8070 C   0  0  0  0  0  0  0  0  0  0  0  0
   51.9960   50.5950   20.8430 C   0  0  0  0  0  0  0  0  0  0  0  0
   50.8250   49.9010   20.6000 C   0  0  0  0  0  0  0  0  0  0  0  0
   50.3060   49.8490   19.3200 C   0  0  0  0  0  0  0  0  0  0  0  0
  2 14  1  0  0  0  0
  2  3  1  0  0  0  0
  3 11  1  0  0  0  0
  4  3  2  0  0  0  0
  4  1  1  0  0  0  0
  5  4  1  0  0  0  0
  6  9  1  0  0  0  0
  6  5  1  0  0  0  0
  7  6  1  0  0  0  0
  8  5  2  0  0  0  0
  9  2  1  0  0  0  0
 10  9  2  0  0  0  0
 11 13  1  0  0  0  0
 11 12  1  0  0  0  0
 14 15  1  0  0  0  0
 15 17  1  0  0  0  0
 17 16  1  0  0  0  0
 18  1  1  0  0  0  0
 18 19  1  0  0  0  0
 19 20  2  0  0  0  0
 19 21  1  0  0  0  0
 21 27  1  0  0  0  0
 22 21  2  0  0  0  0
 22 24  1  0  0  0  0
 23 22  1  0  0  0  0
 24 29  1  0  0  0  0
 24 25  2  0  0  0  0
 25 26  1  0  0  0  0
 27 28  1  0  0  0  0
 27 25  1  0  0  0  0
 29 30  2  0  0  0  0
 29 31  1  0  0  0  0
 31 32  1  0  0  0  0
 33 32  1  0  0  0  0
 34  1  1  0  0  0  0
 34 35  1  0  0  0  0
 35 36  2  0  0  0  0
 35 40  1  0  0  0  0
 36 37  1  0  0  0  0
 37 38  2  0  0  0  0
 39 38  1  0  0  0  0
 40 39  2  0  0  0  0
M  END
>  <MODEL>
5

>  <REMARK>
  Name = ZINC23186726
                            x       y       z     vdW  Elec       q    Type
                         _______ _______ _______ _____ _____    ______ ____

>  <TORSDO>
F 13

>  <minimizedAffinity>
-7.8722020808194575

$$$$
ZINC23186726
 OpenBabel10211216303D

 40 42  0  0  0  0  0  0  0  0999 V2000
   49.0520   56.4940   19.2200 N   0  0  0  0  0  0  0  0  0  0  0  0
   46.7920   59.2820   18.4520 N   0  0  0  0  0  0  0  0  0  0  0  0
   47.6090   58.4300   19.1600 C   0  0  0  0  0  0  0  0  0  0  0  0
   48.2090   57.3820   18.5150 C   0  0  0  0  0  0  0  0  0  0  0  0
   47.9770   57.2080   17.1390 C   0  0  0  0  0  0  0  0  0  0  0  0
   47.1650   58.0620   16.4860 N   0  0  0  0  0  0  0  0  0  0  0  0
   46.9720   57.9260   15.4120 H   0  0  0  0  0  0  0  0  0  0  0  0
   48.5050   56.2850   16.5410 O   0  0  0  0  0  0  0  0  0  0  0  0
   46.5850   59.0870   17.1370 C   0  0  0  0  0  0  0  0  0  0  0  0
   45.8590   59.8490   16.5270 O   0  0  0  0  0  0  0  0  0  0  0  0
   47.8210   58.6290   20.5060 N   0  0  0  0  0  0  0  0  0  0  0  0
   47.6910   57.7950   21.2120 H   0  0  0  0  0  0  0  0  0  0  0  0
   48.1180   59.6210   20.8750 H   0  0  0  0  0  0  0  0  0  0  0  0
   46.1460   60.4050   19.1340 C   0  0  0  0  0  0  0  0  0  0  0  0
   47.0330   61.6470   19.0250 C   0  0  0  0  0  0  0  0  0  0  0  0
   44.9120   62.8530   19.5650 C   0  0  0  0  0  0  0  0  0  0  0  0
   46.4170   62.7870   19.8380 C   0  0  0  0  0  0  0  0  0  0  0  0
   48.6510   55.0970   18.9980 C   0  0  0  0  0  0  0  0  0  0  0  0
   49.8680   54.2680   18.6830 C   0  0  0  0  0  0  0  0  0  0  0  0
   50.9380   54.8090   18.4890 O   0  0  0  0  0  0  0  0  0  0  0  0
   49.7660   52.8580   18.6150 C   0  0  0  0  0  0  0  0  0  0  0  0
   49.0180   52.1440   17.7030 C   0  0  0  0  0  0  0  0  0  0  0  0
   48.1630   52.7130   16.6000 C   0  0  0  0  0  0  0  0  0  0  0  0
   49.2090   50.7770   17.9990 C   0  0  0  0  0  0  0  0  0  0  0  0
   50.0600   50.7110   19.0880 C   0  0  0  0  0  0  0  0  0  0  0  0
   50.5370   49.4450   19.7530 C   0  0  0  0  0  0  0  0  0  0  0  0
   50.3910   51.9580   19.4520 N   0  0  0  0  0  0  0  0  0  0  0  0
   51.0400   52.3200   20.2630 H   0  0  0  0  0  0  0  0  0  0  0  0
   48.6090   49.6370   17.2860 C   0  0  0  0  0  0  0  0  0  0  0  0
   49.1600   49.1760   16.3050 O   0  0  0  0  0  0  0  0  0  0  0  0
   47.4500   49.1050   17.7200 O   0  0  0  0  0  0  0  0  0  0  0  0
   46.2390   49.5150   17.0320 C   0  0  0  0  0  0  0  0  0  0  0  0
   45.0420   48.7580   17.6120 C   0  0  0  0  0  0  0  0  0  0  0  0
   49.0730   56.8130   20.6540 C   0  0  0  0  0  0  0  0  0  0  0  0
   50.5010   56.9530   21.1160 C   0  0  0  0  0  0  0  0  0  0  0  0
   50.9930   56.1180   22.1020 C   0  0  0  0  0  0  0  0  0  0  0  0
   52.3020   56.2460   22.5260 C   0  0  0  0  0  0  0  0  0  0  0  0
   53.1200   57.2090   21.9640 C   0  0  0  0  0  0  0  0  0  0  0  0
   52.6270   58.0440   20.9780 C   0  0  0  0  0  0  0  0  0  0  0  0
   51.3180   57.9160   20.5540 C   0  0  0  0  0  0  0  0  0  0  0  0
  1 34  1  0  0  0  0
  2 14  1  0  0  0  0
  2  3  1  0  0  0  0
  3 11  1  0  0  0  0
  4  3  2  0  0  0  0
  4  1  1  0  0  0  0
  5  4  1  0  0  0  0
  6  9  1  0  0  0  0
  6  5  1  0  0  0  0
  7  6  1  0  0  0  0
  8  5  2  0  0  0  0
  9  2  1  0  0  0  0
 10  9  2  0  0  0  0
 11 13  1  0  0  0  0
 11 12  1  0  0  0  0
 15 14  1  0  0  0  0
 15 17  1  0  0  0  0
 16 17  1  0  0  0  0
 18  1  1  0  0  0  0
 19 18  1  0  0  0  0
 20 19  2  0  0  0  0
 21 19  1  0  0  0  0
 21 27  1  0  0  0  0
 22 24  1  0  0  0  0
 22 21  2  0  0  0  0
 23 22  1  0  0  0  0
 24 25  2  0  0  0  0
 25 27  1  0  0  0  0
 25 26  1  0  0  0  0
 27 28  1  0  0  0  0
 29 31  1  0  0  0  0
 29 24  1  0  0  0  0
 30 29  2  0  0  0  0
 32 33  1  0  0  0  0
 32 31  1  0  0  0  0
 34 35  1  0  0  0  0
 35 36  2  0  0  0  0
 36 37  1  0  0  0  0
 38 37  2  0  0  0  0
 39 38  1  0  0  0  0
 40 39  2  0  0  0  0
 40 35  1  0  0  0  0
M  END
>  <MODEL>
6

>  <REMARK>
  Name = ZINC23186726
                            x       y       z     vdW  Elec       q    Type
                         _______ _______ _______ _____ _____    ______ ____

>  <TORSDO>
F 13

>  <minimizedAffinity>
-7.1764139449664626

$$$$
ZINC23186726
 OpenBabel10211216303D

 40 42  0  0  0  0  0  0  0  0999 V2000
   45.1770   61.5520   18.3210 N   0  0  0  0  0  0  0  0  0  0  0  0
   43.0740   59.7250   15.9320 N   0  0  0  0  0  0  0  0  0  0  0  0
   44.1600   60.3740   16.4740 C   0  0  0  0  0  0  0  0  0  0  0  0
   44.0750   60.8810   17.7420 C   0  0  0  0  0  0  0  0  0  0  0  0
   42.8790   60.7180   18.4620 C   0  0  0  0  0  0  0  0  0  0  0  0
   41.8380   60.0800   17.8910 N   0  0  0  0  0  0  0  0  0  0  0  0
   40.8960   59.9580   18.4450 H   0  0  0  0  0  0  0  0  0  0  0  0
   42.7810   61.1560   19.5970 O   0  0  0  0  0  0  0  0  0  0  0  0
   41.9390   59.5890   16.6420 C   0  0  0  0  0  0  0  0  0  0  0  0
   40.9890   59.0120   16.1480 O   0  0  0  0  0  0  0  0  0  0  0  0
   45.3200   60.5140   15.7460 N   0  0  0  0  0  0  0  0  0  0  0  0
   46.1430   59.7960   15.8810 H   0  0  0  0  0  0  0  0  0  0  0  0
   45.4240   61.3420   15.0310 H   0  0  0  0  0  0  0  0  0  0  0  0
   43.1540   59.1800   14.5750 C   0  0  0  0  0  0  0  0  0  0  0  0
   43.2770   57.6560   14.6440 C   0  0  0  0  0  0  0  0  0  0  0  0
   45.1350   56.4250   13.5130 C   0  0  0  0  0  0  0  0  0  0  0  0
   44.7540   57.2670   14.7330 C   0  0  0  0  0  0  0  0  0  0  0  0
   45.9220   60.6610   19.2220 C   0  0  0  0  0  0  0  0  0  0  0  0
   47.2560   60.3260   18.6070 C   0  0  0  0  0  0  0  0  0  0  0  0
   48.0170   61.2160   18.2850 O   0  0  0  0  0  0  0  0  0  0  0  0
   47.6220   58.9740   18.4050 C   0  0  0  0  0  0  0  0  0  0  0  0
   48.0850   58.1070   19.3730 C   0  0  0  0  0  0  0  0  0  0  0  0
   48.2950   58.4190   20.8320 C   0  0  0  0  0  0  0  0  0  0  0  0
   48.3230   56.8710   18.7340 C   0  0  0  0  0  0  0  0  0  0  0  0
   48.0030   57.0340   17.3980 C   0  0  0  0  0  0  0  0  0  0  0  0
   48.1080   55.9710   16.3340 C   0  0  0  0  0  0  0  0  0  0  0  0
   47.5840   58.2930   17.2060 N   0  0  0  0  0  0  0  0  0  0  0  0
   47.2440   58.8050   16.2930 H   0  0  0  0  0  0  0  0  0  0  0  0
   48.8230   55.6410   19.3710 C   0  0  0  0  0  0  0  0  0  0  0  0
   48.0460   54.7580   19.6790 O   0  0  0  0  0  0  0  0  0  0  0  0
   50.1400   55.4950   19.6120 O   0  0  0  0  0  0  0  0  0  0  0  0
   50.5170   54.9650   20.9100 C   0  0  0  0  0  0  0  0  0  0  0  0
   51.0210   56.1050   21.7990 C   0  0  0  0  0  0  0  0  0  0  0  0
   44.7420   62.7670   19.0240 C   0  0  0  0  0  0  0  0  0  0  0  0
   45.1390   63.9790   18.2210 C   0  0  0  0  0  0  0  0  0  0  0  0
   44.1950   64.9400   17.9080 C   0  0  0  0  0  0  0  0  0  0  0  0
   44.5590   66.0520   17.1720 C   0  0  0  0  0  0  0  0  0  0  0  0
   45.8660   66.2040   16.7490 C   0  0  0  0  0  0  0  0  0  0  0  0
   46.8100   65.2430   17.0620 C   0  0  0  0  0  0  0  0  0  0  0  0
   46.4460   64.1310   17.7980 C   0  0  0  0  0  0  0  0  0  0  0  0
  1 34  1  0  0  0  0
  1 18  1  0  0  0  0
  2  3  1  0  0  0  0
  2  9  1  0  0  0  0
  3  4  2  0  0  0  0
  4  1  1  0  0  0  0
  4  5  1  0  0  0  0
  5  8  2  0  0  0  0
  6  7  1  0  0  0  0
  6  5  1  0  0  0  0
  9  6  1  0  0  0  0
 10  9  2  0  0  0  0
 11 12  1  0  0  0  0
 11  3  1  0  0  0  0
 13 11  1  0  0  0  0
 14 15  1  0  0  0  0
 14  2  1  0  0  0  0
 15 17  1  0  0  0  0
 16 17  1  0  0  0  0
 19 18  1  0  0  0  0
 20 19  2  0  0  0  0
 21 19  1  0  0  0  0
 21 22  2  0  0  0  0
 22 23  1  0  0  0  0
 24 29  1  0  0  0  0
 24 22  1  0  0  0  0
 25 24  2  0  0  0  0
 26 25  1  0  0  0  0
 27 25  1  0  0  0  0
 27 21  1  0  0  0  0
 28 27  1  0  0  0  0
 29 31  1  0  0  0  0
 29 30  2  0  0  0  0
 31 32  1  0  0  0  0
 32 33  1  0  0  0  0
 35 34  1  0  0  0  0
 36 35  1  0  0  0  0
 37 36  2  0  0  0  0
 38 39  2  0  0  0  0
 38 37  1  0  0  0  0
 39 40  1  0  0  0  0
 40 35  2  0  0  0  0
M  END
>  <MODEL>
7

>  <REMARK>
  Name = ZINC23186726
                            x       y       z     vdW  Elec       q    Type
                         _______ _______ _______ _____ _____    ______ ____

>  <TORSDO>
F 13

>  <minimizedAffinity>
-7.1297557057044463

$$$$
ZINC23186726
 OpenBabel10211216303D

 40 42  0  0  0  0  0  0  0  0999 V2000
   50.9750   54.5710   19.8750 N   0  0  0  0  0  0  0  0  0  0  0  0
   50.6340   50.9260   19.6020 N   0  0  0  0  0  0  0  0  0  0  0  0
   50.6700   52.2570   19.2510 C   0  0  0  0  0  0  0  0  0  0  0  0
   50.9330   53.1980   20.2100 C   0  0  0  0  0  0  0  0  0  0  0  0
   51.1660   52.7770   21.5310 C   0  0  0  0  0  0  0  0  0  0  0  0
   51.1160   51.4640   21.8310 N   0  0  0  0  0  0  0  0  0  0  0  0
   51.2880   51.1290   22.8640 H   0  0  0  0  0  0  0  0  0  0  0  0
   51.4090   53.5960   22.4020 O   0  0  0  0  0  0  0  0  0  0  0  0
   50.8560   50.5530   20.8750 C   0  0  0  0  0  0  0  0  0  0  0  0
   50.8210   49.3730   21.1680 O   0  0  0  0  0  0  0  0  0  0  0  0
   50.4420   52.6380   17.9480 N   0  0  0  0  0  0  0  0  0  0  0  0
   49.4110   52.7490   17.5810 H   0  0  0  0  0  0  0  0  0  0  0  0
   51.2890   52.8310   17.2750 H   0  0  0  0  0  0  0  0  0  0  0  0
   50.3530   49.9130   18.5840 C   0  0  0  0  0  0  0  0  0  0  0  0
   48.8700   49.5390   18.6310 C   0  0  0  0  0  0  0  0  0  0  0  0
   47.3540   50.9040   17.1880 C   0  0  0  0  0  0  0  0  0  0  0  0
   48.2640   49.6750   17.2320 C   0  0  0  0  0  0  0  0  0  0  0  0
   50.1410   54.8520   18.6990 C   0  0  0  0  0  0  0  0  0  0  0  0
   48.8760   55.5460   19.1340 C   0  0  0  0  0  0  0  0  0  0  0  0
   48.3730   55.2750   20.2050 O   0  0  0  0  0  0  0  0  0  0  0  0
   48.2760   56.5150   18.2950 C   0  0  0  0  0  0  0  0  0  0  0  0
   47.8360   56.3080   17.0040 C   0  0  0  0  0  0  0  0  0  0  0  0
   47.9040   55.0170   16.2290 C   0  0  0  0  0  0  0  0  0  0  0  0
   47.3090   57.5350   16.5510 C   0  0  0  0  0  0  0  0  0  0  0  0
   47.4550   58.4480   17.5800 C   0  0  0  0  0  0  0  0  0  0  0  0
   47.0330   59.8950   17.5380 C   0  0  0  0  0  0  0  0  0  0  0  0
   48.0340   57.8330   18.6220 N   0  0  0  0  0  0  0  0  0  0  0  0
   48.3150   58.2140   19.6140 H   0  0  0  0  0  0  0  0  0  0  0  0
   46.7180   57.7970   15.2270 C   0  0  0  0  0  0  0  0  0  0  0  0
   47.3910   57.6610   14.2240 O   0  0  0  0  0  0  0  0  0  0  0  0
   45.4320   58.1870   15.1290 O   0  0  0  0  0  0  0  0  0  0  0  0
   45.1120   59.1450   14.0860 C   0  0  0  0  0  0  0  0  0  0  0  0
   44.7580   60.4920   14.7210 C   0  0  0  0  0  0  0  0  0  0  0  0
   52.3580   55.0170   19.6590 C   0  0  0  0  0  0  0  0  0  0  0  0
   52.5790   56.3280   20.3690 C   0  0  0  0  0  0  0  0  0  0  0  0
   51.5660   56.8790   21.1330 C   0  0  0  0  0  0  0  0  0  0  0  0
   51.7690   58.0810   21.7840 C   0  0  0  0  0  0  0  0  0  0  0  0
   52.9830   58.7330   21.6720 C   0  0  0  0  0  0  0  0  0  0  0  0
   53.9950   58.1820   20.9070 C   0  0  0  0  0  0  0  0  0  0  0  0
   53.7930   56.9800   20.2560 C   0  0  0  0  0  0  0  0  0  0  0  0
  1  4  1  0  0  0  0
  2  9  1  0  0  0  0
  3  2  1  0  0  0  0
  3  4  2  0  0  0  0
  4  5  1  0  0  0  0
  5  6  1  0  0  0  0
  5  8  2  0  0  0  0
  6  7  1  0  0  0  0
  9 10  2  0  0  0  0
  9  6  1  0  0  0  0
 11  3  1  0  0  0  0
 12 11  1  0  0  0  0
 13 11  1  0  0  0  0
 14 15  1  0  0  0  0
 14  2  1  0  0  0  0
 16 17  1  0  0  0  0
 17 15  1  0  0  0  0
 18 19  1  0  0  0  0
 18  1  1  0  0  0  0
 19 20  2  0  0  0  0
 21 27  1  0  0  0  0
 21 19  1  0  0  0  0
 22 21  2  0  0  0  0
 23 22  1  0  0  0  0
 24 22  1  0  0  0  0
 24 25  2  0  0  0  0
 25 27  1  0  0  0  0
 26 25  1  0  0  0  0
 27 28  1  0  0  0  0
 29 24  1  0  0  0  0
 30 29  2  0  0  0  0
 31 29  1  0  0  0  0
 32 33  1  0  0  0  0
 32 31  1  0  0  0  0
 34  1  1  0  0  0  0
 34 35  1  0  0  0  0
 35 36  1  0  0  0  0
 36 37  2  0  0  0  0
 38 37  1  0  0  0  0
 39 38  2  0  0  0  0
 40 35  2  0  0  0  0
 40 39  1  0  0  0  0
M  END
>  <MODEL>
8

>  <REMARK>
  Name = ZINC23186726
                            x       y       z     vdW  Elec       q    Type
                         _______ _______ _______ _____ _____    ______ ____

>  <TORSDO>
F 13

>  <minimizedAffinity>
-7.1240224829646044

$$$$
ZINC23186726
 OpenBabel10211216303D

 40 42  0  0  0  0  0  0  0  0999 V2000
   44.7240   61.0860   16.8440 N   0  0  0  0  0  0  0  0  0  0  0  0
   47.3220   58.9100   18.2540 N   0  0  0  0  0  0  0  0  0  0  0  0
   46.4160   59.9390   18.1310 C   0  0  0  0  0  0  0  0  0  0  0  0
   45.6610   60.0380   16.9950 C   0  0  0  0  0  0  0  0  0  0  0  0
   45.8260   59.0760   15.9820 C   0  0  0  0  0  0  0  0  0  0  0  0
   46.7280   58.0880   16.1420 N   0  0  0  0  0  0  0  0  0  0  0  0
   46.8690   57.3390   15.3490 H   0  0  0  0  0  0  0  0  0  0  0  0
   45.1600   59.1390   14.9620 O   0  0  0  0  0  0  0  0  0  0  0  0
   47.4620   58.0070   17.2660 C   0  0  0  0  0  0  0  0  0  0  0  0
   48.2670   57.1040   17.3920 O   0  0  0  0  0  0  0  0  0  0  0  0
   46.2730   60.8630   19.1420 N   0  0  0  0  0  0  0  0  0  0  0  0
   45.6770   61.7730   18.9750 H   0  0  0  0  0  0  0  0  0  0  0  0
   46.7560   60.6930   20.1150 H   0  0  0  0  0  0  0  0  0  0  0  0
   48.1350   58.7970   19.4660 C   0  0  0  0  0  0  0  0  0  0  0  0
   47.5350   57.7310   20.3860 C   0  0  0  0  0  0  0  0  0  0  0  0
   49.5580   57.8730   21.8470 C   0  0  0  0  0  0  0  0  0  0  0  0
   48.6620   56.9290   21.0410 C   0  0  0  0  0  0  0  0  0  0  0  0
   43.3530   60.5610   16.7750 C   0  0  0  0  0  0  0  0  0  0  0  0
   42.5340   61.1440   17.8970 C   0  0  0  0  0  0  0  0  0  0  0  0
   42.3720   60.5110   18.9220 O   0  0  0  0  0  0  0  0  0  0  0  0
   41.9560   62.4280   17.7590 C   0  0  0  0  0  0  0  0  0  0  0  0
   42.4020   63.5860   18.3610 C   0  0  0  0  0  0  0  0  0  0  0  0
   43.5870   63.7210   19.2820 C   0  0  0  0  0  0  0  0  0  0  0  0
   41.5370   64.6210   17.9460 C   0  0  0  0  0  0  0  0  0  0  0  0
   40.5900   64.0510   17.1120 C   0  0  0  0  0  0  0  0  0  0  0  0
   39.4590   64.7860   16.4380 C   0  0  0  0  0  0  0  0  0  0  0  0
   40.8450   62.7400   17.0030 N   0  0  0  0  0  0  0  0  0  0  0  0
   40.3260   61.9520   16.4380 H   0  0  0  0  0  0  0  0  0  0  0  0
   41.6230   66.0390   18.3320 C   0  0  0  0  0  0  0  0  0  0  0  0
   41.0030   66.4450   19.2950 O   0  0  0  0  0  0  0  0  0  0  0  0
   42.3880   66.8870   17.6170 O   0  0  0  0  0  0  0  0  0  0  0  0
   41.7000   67.9120   16.8540 C   0  0  0  0  0  0  0  0  0  0  0  0
   41.8460   67.6200   15.3580 C   0  0  0  0  0  0  0  0  0  0  0  0
   45.0350   61.9040   15.6640 C   0  0  0  0  0  0  0  0  0  0  0  0
   45.3740   63.3060   16.1010 C   0  0  0  0  0  0  0  0  0  0  0  0
   44.5940   64.3680   15.6800 C   0  0  0  0  0  0  0  0  0  0  0  0
   44.9050   65.6540   16.0810 C   0  0  0  0  0  0  0  0  0  0  0  0
   45.9940   65.8780   16.9020 C   0  0  0  0  0  0  0  0  0  0  0  0
   46.7740   64.8160   17.3220 C   0  0  0  0  0  0  0  0  0  0  0  0
   46.4630   63.5300   16.9210 C   0  0  0  0  0  0  0  0  0  0  0  0
  1  4  1  0  0  0  0
  2 14  1  0  0  0  0
  3  2  1  0  0  0  0
  3 11  1  0  0  0  0
  4  3  2  0  0  0  0
  5  6  1  0  0  0  0
  5  4  1  0  0  0  0
  6  9  1  0  0  0  0
  7  6  1  0  0  0  0
  8  5  2  0  0  0  0
  9 10  2  0  0  0  0
  9  2  1  0  0  0  0
 11 13  1  0  0  0  0
 12 11  1  0  0  0  0
 14 15  1  0  0  0  0
 15 17  1  0  0  0  0
 17 16  1  0  0  0  0
 18  1  1  0  0  0  0
 18 19  1  0  0  0  0
 19 20  2  0  0  0  0
 21 19  1  0  0  0  0
 21 22  2  0  0  0  0
 22 23  1  0  0  0  0
 24 29  1  0  0  0  0
 24 22  1  0  0  0  0
 25 24  2  0  0  0  0
 26 25  1  0  0  0  0
 27 25  1  0  0  0  0
 27 21  1  0  0  0  0
 28 27  1  0  0  0  0
 29 30  2  0  0  0  0
 31 29  1  0  0  0  0
 32 31  1  0  0  0  0
 33 32  1  0  0  0  0
 34 35  1  0  0  0  0
 34  1  1  0  0  0  0
 35 40  2  0  0  0  0
 36 37  2  0  0  0  0
 36 35  1  0  0  0  0
 37 38  1  0  0  0  0
 38 39  2  0  0  0  0
 40 39  1  0  0  0  0
M  END
>  <MODEL>
9

>  <REMARK>
  Name = ZINC23186726
                            x       y       z     vdW  Elec       q    Type
                         _______ _______ _______ _____ _____    ______ ____

>  <TORSDO>
F 13

>  <minimizedAffinity>
-7.1017470959231304

$$$$
ZINC41642221
 OpenBabel10211216323D

 31 33  0  0  1  0  0  0  0  0999 V2000
   48.2060   52.7650   17.4240 N   0  0  0  0  0  0  0  0  0  0  0  0
   48.5080   52.5120   18.3100 H   0  0  0  0  0  0  0  0  0  0  0  0
   48.2070   54.0620   17.0570 C   0  0  0  0  0  0  0  0  0  0  0  0
   47.8280   54.3800   15.9480 O   0  0  0  0  0  0  0  0  0  0  0  0
   48.6730   55.1090   18.0150 C   0  0  0  0  0  0  0  0  0  0  0  0
   48.4900   54.9390   19.3390 N   0  0  0  0  0  0  0  0  0  0  0  0
   48.1200   54.1090   19.6750 H   0  0  0  0  0  0  0  0  0  0  0  0
   49.2140   56.1130   17.6010 O   0  0  0  0  0  0  0  0  0  0  0  0
   48.8350   55.9600   20.2290 C   0  0  0  0  0  0  0  0  0  0  0  0
   47.9930   57.0520   20.3960 C   0  0  0  0  0  0  0  0  0  0  0  0
   48.3360   58.0600   21.2770 C   0  0  0  0  0  0  0  0  0  0  0  0
   49.5170   57.9850   21.9950 C   0  0  0  0  0  0  0  0  0  0  0  0
   50.3600   56.9020   21.8350 C   0  0  0  0  0  0  0  0  0  0  0  0
   50.0220   55.8820   20.9570 C   0  0  0  0  0  0  0  0  0  0  0  0
   50.8730   54.7800   20.7990 N   0  0  0  0  0  0  0  0  0  0  0  0
   51.0670   53.7880   21.6960 C   0  0  0  0  0  0  0  0  0  0  0  0
   51.9600   52.9200   21.1660 C   0  0  0  0  0  0  0  0  0  0  0  0
   52.3250   53.3970   19.9020 C   0  0  0  0  0  0  0  0  0  0  0  0
   51.6700   54.5080   19.6790 N   0  0  0  0  0  0  0  0  0  0  0  0
   47.7480   51.7380   16.4850 C   0  0  0  0  0  0  0  0  0  0  0  0
   48.4700   50.4220   16.7770 C   0  0  2  0  0  0  0  0  0  0  0  0
   47.4420   49.2980   16.9250 C   0  0  0  0  0  0  0  0  0  0  0  0
   47.3280   48.5330   15.6060 C   0  0  0  0  0  0  0  0  0  0  0  0
   46.3000   47.4090   15.7550 C   0  0  0  0  0  0  0  0  0  0  0  0
   44.9390   48.0080   16.1160 C   0  0  0  0  0  0  0  0  0  0  0  0
   45.0540   48.7730   17.4350 C   0  0  0  0  0  0  0  0  0  0  0  0
   46.0810   49.8970   17.2870 C   0  0  0  0  0  0  0  0  0  0  0  0
   49.0900   49.3250   18.8180 C   0  0  0  0  0  0  0  0  0  0  0  0
   49.2390   50.5500   18.0220 N   0  0  0  0  0  0  0  0  0  0  0  0
   48.8960   51.3390   18.5490 H   0  0  0  0  0  0  0  0  0  0  0  0
   50.6580   50.7570   17.7010 C   0  0  0  0  0  0  0  0  0  0  0  0
  1  2  1  0  0  0  0
  3  1  1  0  0  0  0
  3  5  1  0  0  0  0
  4  3  2  0  0  0  0
  5  6  1  0  0  0  0
  6  7  1  0  0  0  0
  6  9  1  0  0  0  0
  8  5  2  0  0  0  0
  9 10  2  0  0  0  0
  9 14  1  0  0  0  0
 10 11  1  0  0  0  0
 11 12  2  0  0  0  0
 13 12  1  0  0  0  0
 14 13  2  0  0  0  0
 15 14  1  0  0  0  0
 15 16  1  0  0  0  0
 17 16  2  0  0  0  0
 18 17  1  0  0  0  0
 19 18  2  0  0  0  0
 19 15  1  0  0  0  0
 20  1  1  0  0  0  0
 21 20  1  1  0  0  0
 21 22  1  0  0  0  0
 21 29  1  0  0  0  0
 22 27  1  0  0  0  0
 23 24  1  0  0  0  0
 23 22  1  0  0  0  0
 24 25  1  0  0  0  0
 25 26  1  0  0  0  0
 27 26  1  0  0  0  0
 29 30  1  0  0  0  0
 29 28  1  0  0  0  0
 31 29  1  0  0  0  0
M  END
>  <MODEL>
1

>  <REMARK>
  Name = ZINC41642221
                            x       y       z     vdW  Elec       q    Type
                         _______ _______ _______ _____ _____    ______ ____

>  <TORSDO>
F 7

>  <minimizedAffinity>
-9.03618788474461

$$$$
ZINC41642221
 OpenBabel10211216323D

 31 33  0  0  1  0  0  0  0  0999 V2000
   49.0460   53.4220   18.1280 N   0  0  0  0  0  0  0  0  0  0  0  0
   48.2290   53.8820   17.8830 H   0  0  0  0  0  0  0  0  0  0  0  0
   49.1390   52.0860   17.9800 C   0  0  0  0  0  0  0  0  0  0  0  0
   50.1620   51.5090   18.2860 O   0  0  0  0  0  0  0  0  0  0  0  0
   47.9800   51.3120   17.4400 C   0  0  0  0  0  0  0  0  0  0  0  0
   47.8720   49.9940   17.6960 N   0  0  0  0  0  0  0  0  0  0  0  0
   48.5070   49.5610   18.2860 H   0  0  0  0  0  0  0  0  0  0  0  0
   47.1360   51.8710   16.7700 O   0  0  0  0  0  0  0  0  0  0  0  0
   46.8440   49.2490   17.1100 C   0  0  0  0  0  0  0  0  0  0  0  0
   45.6880   48.9760   17.8290 C   0  0  0  0  0  0  0  0  0  0  0  0
   44.6730   48.2400   17.2480 C   0  0  0  0  0  0  0  0  0  0  0  0
   44.8040   47.7750   15.9510 C   0  0  0  0  0  0  0  0  0  0  0  0
   45.9500   48.0440   15.2290 C   0  0  0  0  0  0  0  0  0  0  0  0
   46.9730   48.7870   15.8020 C   0  0  0  0  0  0  0  0  0  0  0  0
   48.1350   49.0660   15.0680 N   0  0  0  0  0  0  0  0  0  0  0  0
   48.2000   49.7780   13.9210 C   0  0  0  0  0  0  0  0  0  0  0  0
   49.4970   49.8190   13.5340 C   0  0  0  0  0  0  0  0  0  0  0  0
   50.2490   49.1070   14.4750 C   0  0  0  0  0  0  0  0  0  0  0  0
   49.4350   48.6600   15.3970 N   0  0  0  0  0  0  0  0  0  0  0  0
   50.1820   54.1800   18.6580 C   0  0  0  0  0  0  0  0  0  0  0  0
   49.9290   54.5170   20.1280 C   0  0  2  0  0  0  0  0  0  0  0  0
   49.6830   56.0200   20.2720 C   0  0  0  0  0  0  0  0  0  0  0  0
   50.2000   56.4940   21.6320 C   0  0  0  0  0  0  0  0  0  0  0  0
   49.9530   57.9970   21.7760 C   0  0  0  0  0  0  0  0  0  0  0  0
   48.4530   58.2790   21.6750 C   0  0  0  0  0  0  0  0  0  0  0  0
   47.9350   57.8050   20.3160 C   0  0  0  0  0  0  0  0  0  0  0  0
   48.1820   56.3020   20.1710 C   0  0  0  0  0  0  0  0  0  0  0  0
   50.8210   52.8800   21.6380 C   0  0  0  0  0  0  0  0  0  0  0  0
   51.1010   54.1340   20.9270 N   0  0  0  0  0  0  0  0  0  0  0  0
   51.3050   54.8620   21.5950 H   0  0  0  0  0  0  0  0  0  0  0  0
   52.2570   53.9470   20.0400 C   0  0  0  0  0  0  0  0  0  0  0  0
  1 20  1  0  0  0  0
  2  1  1  0  0  0  0
  3  1  1  0  0  0  0
  3  4  2  0  0  0  0
  5  6  1  0  0  0  0
  5  3  1  0  0  0  0
  6  7  1  0  0  0  0
  8  5  2  0  0  0  0
  9  6  1  0  0  0  0
  9 10  2  0  0  0  0
 11 10  1  0  0  0  0
 12 11  2  0  0  0  0
 13 14  2  0  0  0  0
 13 12  1  0  0  0  0
 14  9  1  0  0  0  0
 15 19  1  0  0  0  0
 15 14  1  0  0  0  0
 16 15  1  0  0  0  0
 17 16  2  0  0  0  0
 17 18  1  0  0  0  0
 18 19  2  0  0  0  0
 21 20  1  6  0  0  0
 21 22  1  0  0  0  0
 21 29  1  0  0  0  0
 22 23  1  0  0  0  0
 23 24  1  0  0  0  0
 25 24  1  0  0  0  0
 26 25  1  0  0  0  0
 27 22  1  0  0  0  0
 27 26  1  0  0  0  0
 29 30  1  0  0  0  0
 29 28  1  0  0  0  0
 31 29  1  0  0  0  0
M  END
>  <MODEL>
2

>  <REMARK>
  Name = ZINC41642221
                            x       y       z     vdW  Elec       q    Type
                         _______ _______ _______ _____ _____    ______ ____

>  <TORSDO>
F 7

>  <minimizedAffinity>
-8.8412396706460434

$$$$
ZINC41642221
 OpenBabel10211216323D

 31 33  0  0  1  0  0  0  0  0999 V2000
   48.8740   52.6710   17.2440 N   0  0  0  0  0  0  0  0  0  0  0  0
   49.4320   52.5480   18.0280 H   0  0  0  0  0  0  0  0  0  0  0  0
   48.3440   53.8810   16.9770 C   0  0  0  0  0  0  0  0  0  0  0  0
   47.6460   54.0360   15.9970 O   0  0  0  0  0  0  0  0  0  0  0  0
   48.6150   55.0320   17.8900 C   0  0  0  0  0  0  0  0  0  0  0  0
   48.3810   54.9130   19.2110 N   0  0  0  0  0  0  0  0  0  0  0  0
   48.1050   54.0610   19.5800 H   0  0  0  0  0  0  0  0  0  0  0  0
   49.0430   56.0750   17.4400 O   0  0  0  0  0  0  0  0  0  0  0  0
   48.5390   56.0190   20.0520 C   0  0  0  0  0  0  0  0  0  0  0  0
   47.5400   56.9800   20.1330 C   0  0  0  0  0  0  0  0  0  0  0  0
   47.6980   58.0710   20.9650 C   0  0  0  0  0  0  0  0  0  0  0  0
   48.8510   58.2110   21.7190 C   0  0  0  0  0  0  0  0  0  0  0  0
   49.8490   57.2600   21.6450 C   0  0  0  0  0  0  0  0  0  0  0  0
   49.6970   56.1570   20.8160 C   0  0  0  0  0  0  0  0  0  0  0  0
   50.7070   55.1870   20.7440 N   0  0  0  0  0  0  0  0  0  0  0  0
   51.8180   55.2510   19.9750 C   0  0  0  0  0  0  0  0  0  0  0  0
   52.5360   54.1240   20.1940 C   0  0  0  0  0  0  0  0  0  0  0  0
   51.8410   53.3460   21.1260 C   0  0  0  0  0  0  0  0  0  0  0  0
   50.7480   53.9840   21.4600 N   0  0  0  0  0  0  0  0  0  0  0  0
   48.6080   51.5410   16.3500 C   0  0  0  0  0  0  0  0  0  0  0  0
   48.9460   50.2330   17.0660 C   0  0  2  0  0  0  0  0  0  0  0  0
   49.9470   50.5100   18.1890 C   0  0  0  0  0  0  0  0  0  0  0  0
   51.3680   50.4910   17.6230 C   0  0  0  0  0  0  0  0  0  0  0  0
   52.3690   50.7680   18.7460 C   0  0  0  0  0  0  0  0  0  0  0  0
   52.2360   49.6900   19.8240 C   0  0  0  0  0  0  0  0  0  0  0  0
   50.8150   49.7090   20.3910 C   0  0  0  0  0  0  0  0  0  0  0  0
   49.8140   49.4320   19.2670 C   0  0  0  0  0  0  0  0  0  0  0  0
   48.7760   48.0300   16.1310 C   0  0  0  0  0  0  0  0  0  0  0  0
   49.5350   49.2870   16.1070 N   0  0  0  0  0  0  0  0  0  0  0  0
   50.4950   49.1070   16.3600 H   0  0  0  0  0  0  0  0  0  0  0  0
   49.4840   49.8650   14.7580 C   0  0  0  0  0  0  0  0  0  0  0  0
  1  2  1  0  0  0  0
  3  1  1  0  0  0  0
  3  5  1  0  0  0  0
  4  3  2  0  0  0  0
  5  6  1  0  0  0  0
  6  7  1  0  0  0  0
  6  9  1  0  0  0  0
  8  5  2  0  0  0  0
  9 10  2  0  0  0  0
  9 14  1  0  0  0  0
 10 11  1  0  0  0  0
 11 12  2  0  0  0  0
 13 12  1  0  0  0  0
 14 13  2  0  0  0  0
 15 14  1  0  0  0  0
 15 19  1  0  0  0  0
 16 17  2  0  0  0  0
 16 15  1  0  0  0  0
 17 18  1  0  0  0  0
 18 19  2  0  0  0  0
 20 21  1  0  0  0  0
 20  1  1  0  0  0  0
 21 29  1  6  0  0  0
 21 22  1  0  0  0  0
 22 27  1  0  0  0  0
 23 22  1  0  0  0  0
 23 24  1  0  0  0  0
 24 25  1  0  0  0  0
 25 26  1  0  0  0  0
 27 26  1  0  0  0  0
 29 28  1  0  0  0  0
 29 30  1  0  0  0  0
 31 29  1  0  0  0  0
M  END
>  <MODEL>
3

>  <REMARK>
  Name = ZINC41642221
                            x       y       z     vdW  Elec       q    Type
                         _______ _______ _______ _____ _____    ______ ____

>  <TORSDO>
F 7

>  <minimizedAffinity>
-8.7665003484438202

$$$$
ZINC41642221
 OpenBabel10211216323D

 31 33  0  0  1  0  0  0  0  0999 V2000
   51.1540   52.3640   18.6680 N   0  0  0  0  0  0  0  0  0  0  0  0
   50.4000   52.5640   19.2440 H   0  0  0  0  0  0  0  0  0  0  0  0
   52.2640   53.1270   18.7210 C   0  0  0  0  0  0  0  0  0  0  0  0
   53.2080   52.8770   18.0000 O   0  0  0  0  0  0  0  0  0  0  0  0
   52.3310   54.2820   19.6650 C   0  0  0  0  0  0  0  0  0  0  0  0
   52.3630   55.5420   19.1860 N   0  0  0  0  0  0  0  0  0  0  0  0
   52.2710   55.7020   18.2350 H   0  0  0  0  0  0  0  0  0  0  0  0
   52.3600   54.0870   20.8620 O   0  0  0  0  0  0  0  0  0  0  0  0
   52.5250   56.6190   20.0630 C   0  0  0  0  0  0  0  0  0  0  0  0
   53.7980   57.0080   20.4580 C   0  0  0  0  0  0  0  0  0  0  0  0
   53.9570   58.0720   21.3240 C   0  0  0  0  0  0  0  0  0  0  0  0
   52.8500   58.7550   21.7980 C   0  0  0  0  0  0  0  0  0  0  0  0
   51.5800   58.3760   21.4080 C   0  0  0  0  0  0  0  0  0  0  0  0
   51.4110   57.3110   20.5350 C   0  0  0  0  0  0  0  0  0  0  0  0
   50.1230   56.9280   20.1340 N   0  0  0  0  0  0  0  0  0  0  0  0
   49.0510   56.7750   20.9430 C   0  0  0  0  0  0  0  0  0  0  0  0
   48.0030   56.4010   20.1720 C   0  0  0  0  0  0  0  0  0  0  0  0
   48.4500   56.3220   18.8480 C   0  0  0  0  0  0  0  0  0  0  0  0
   49.7180   56.6430   18.8240 N   0  0  0  0  0  0  0  0  0  0  0  0
   51.0880   51.2310   17.7420 C   0  0  0  0  0  0  0  0  0  0  0  0
   50.5520   50.0010   18.4770 C   0  0  2  0  0  0  0  0  0  0  0  0
   49.0230   50.0460   18.5000 C   0  0  0  0  0  0  0  0  0  0  0  0
   48.4690   48.6240   18.3980 C   0  0  0  0  0  0  0  0  0  0  0  0
   46.9400   48.6690   18.4210 C   0  0  0  0  0  0  0  0  0  0  0  0
   46.4360   49.4980   17.2380 C   0  0  0  0  0  0  0  0  0  0  0  0
   46.9900   50.9210   17.3410 C   0  0  0  0  0  0  0  0  0  0  0  0
   48.5190   50.8760   17.3180 C   0  0  0  0  0  0  0  0  0  0  0  0
   50.3040   49.0210   20.6520 C   0  0  0  0  0  0  0  0  0  0  0  0
   51.0630   49.9930   19.8540 N   0  0  0  0  0  0  0  0  0  0  0  0
   50.9610   50.9120   20.2570 H   0  0  0  0  0  0  0  0  0  0  0  0
   52.4830   49.6180   19.8460 C   0  0  0  0  0  0  0  0  0  0  0  0
  1  3  1  0  0  0  0
  1  2  1  0  0  0  0
  3  5  1  0  0  0  0
  4  3  2  0  0  0  0
  5  8  2  0  0  0  0
  6  5  1  0  0  0  0
  6  9  1  0  0  0  0
  7  6  1  0  0  0  0
  9 10  2  0  0  0  0
  9 14  1  0  0  0  0
 10 11  1  0  0  0  0
 11 12  2  0  0  0  0
 13 12  1  0  0  0  0
 14 13  2  0  0  0  0
 15 14  1  0  0  0  0
 15 16  1  0  0  0  0
 17 16  2  0  0  0  0
 18 17  1  0  0  0  0
 19 18  2  0  0  0  0
 19 15  1  0  0  0  0
 20  1  1  0  0  0  0
 21 20  1  1  0  0  0
 21 22  1  0  0  0  0
 21 29  1  0  0  0  0
 23 24  1  0  0  0  0
 23 22  1  0  0  0  0
 25 26  1  0  0  0  0
 25 24  1  0  0  0  0
 27 26  1  0  0  0  0
 27 22  1  0  0  0  0
 29 30  1  0  0  0  0
 29 28  1  0  0  0  0
 31 29  1  0  0  0  0
M  END
>  <MODEL>
4

>  <REMARK>
  Name = ZINC41642221
                            x       y       z     vdW  Elec       q    Type
                         _______ _______ _______ _____ _____    ______ ____

>  <TORSDO>
F 7

>  <minimizedAffinity>
-8.5789966014699939

$$$$
ZINC41642221
 OpenBabel10211216323D

 31 33  0  0  1  0  0  0  0  0999 V2000
   49.8140   50.6770   19.1780 N   0  0  0  0  0  0  0  0  0  0  0  0
   49.3170   51.4650   18.9090 H   0  0  0  0  0  0  0  0  0  0  0  0
   50.8840   50.7980   19.9880 C   0  0  0  0  0  0  0  0  0  0  0  0
   51.5060   49.8120   20.3250 O   0  0  0  0  0  0  0  0  0  0  0  0
   51.3050   52.1470   20.4720 C   0  0  0  0  0  0  0  0  0  0  0  0
   50.3910   52.9970   20.9780 N   0  0  0  0  0  0  0  0  0  0  0  0
   49.4720   52.7100   21.0940 H   0  0  0  0  0  0  0  0  0  0  0  0
   52.4710   52.4790   20.4070 O   0  0  0  0  0  0  0  0  0  0  0  0
   50.7660   54.2950   21.3390 C   0  0  0  0  0  0  0  0  0  0  0  0
   51.5000   54.5100   22.4980 C   0  0  0  0  0  0  0  0  0  0  0  0
   51.8700   55.7930   22.8520 C   0  0  0  0  0  0  0  0  0  0  0  0
   51.5120   56.8660   22.0550 C   0  0  0  0  0  0  0  0  0  0  0  0
   50.7830   56.6610   20.9000 C   0  0  0  0  0  0  0  0  0  0  0  0
   50.4110   55.3750   20.5330 C   0  0  0  0  0  0  0  0  0  0  0  0
   49.6760   55.1650   19.3580 N   0  0  0  0  0  0  0  0  0  0  0  0
   48.9960   56.1060   18.6650 C   0  0  0  0  0  0  0  0  0  0  0  0
   48.4250   55.5000   17.5970 C   0  0  0  0  0  0  0  0  0  0  0  0
   48.7680   54.1440   17.6390 C   0  0  0  0  0  0  0  0  0  0  0  0
   49.5210   53.9430   18.6900 N   0  0  0  0  0  0  0  0  0  0  0  0
   49.4010   49.3540   18.7030 C   0  0  0  0  0  0  0  0  0  0  0  0
   48.7070   49.4920   17.3470 C   0  0  2  0  0  0  0  0  0  0  0  0
   47.4330   48.6460   17.3360 C   0  0  0  0  0  0  0  0  0  0  0  0
   46.3340   49.3870   16.5730 C   0  0  0  0  0  0  0  0  0  0  0  0
   45.0600   48.5410   16.5620 C   0  0  0  0  0  0  0  0  0  0  0  0
   44.6020   48.2910   18.0010 C   0  0  0  0  0  0  0  0  0  0  0  0
   45.7010   47.5500   18.7640 C   0  0  0  0  0  0  0  0  0  0  0  0
   46.9750   48.3970   18.7750 C   0  0  0  0  0  0  0  0  0  0  0  0
   49.1190   47.7570   15.7420 C   0  0  0  0  0  0  0  0  0  0  0  0
   49.6110   49.0300   16.2850 N   0  0  0  0  0  0  0  0  0  0  0  0
   50.5370   48.8990   16.6640 H   0  0  0  0  0  0  0  0  0  0  0  0
   49.6590   50.0340   15.2130 C   0  0  0  0  0  0  0  0  0  0  0  0
  1  3  1  0  0  0  0
  2  1  1  0  0  0  0
  3  4  2  0  0  0  0
  3  5  1  0  0  0  0
  5  6  1  0  0  0  0
  6  7  1  0  0  0  0
  6  9  1  0  0  0  0
  8  5  2  0  0  0  0
  9 10  2  0  0  0  0
 10 11  1  0  0  0  0
 12 11  2  0  0  0  0
 13 12  1  0  0  0  0
 14 13  2  0  0  0  0
 14  9  1  0  0  0  0
 15 14  1  0  0  0  0
 16 15  1  0  0  0  0
 17 18  1  0  0  0  0
 17 16  2  0  0  0  0
 18 19  2  0  0  0  0
 19 15  1  0  0  0  0
 20  1  1  0  0  0  0
 21 29  1  1  0  0  0
 21 20  1  0  0  0  0
 22 21  1  0  0  0  0
 22 27  1  0  0  0  0
 23 22  1  0  0  0  0
 24 23  1  0  0  0  0
 24 25  1  0  0  0  0
 25 26  1  0  0  0  0
 26 27  1  0  0  0  0
 28 29  1  0  0  0  0
 29 30  1  0  0  0  0
 31 29  1  0  0  0  0
M  END
>  <MODEL>
5

>  <REMARK>
  Name = ZINC41642221
                            x       y       z     vdW  Elec       q    Type
                         _______ _______ _______ _____ _____    ______ ____

>  <TORSDO>
F 7

>  <minimizedAffinity>
-8.4360973536485577

$$$$
ZINC41642221
 OpenBabel10211216323D

 31 33  0  0  1  0  0  0  0  0999 V2000
   49.6980   53.6610   18.2170 N   0  0  0  0  0  0  0  0  0  0  0  0
   50.2210   52.9280   18.5770 H   0  0  0  0  0  0  0  0  0  0  0  0
   48.7540   53.4230   17.2860 C   0  0  0  0  0  0  0  0  0  0  0  0
   48.1010   54.3400   16.8340 O   0  0  0  0  0  0  0  0  0  0  0  0
   48.5130   52.0280   16.8060 C   0  0  0  0  0  0  0  0  0  0  0  0
   47.8920   51.1390   17.6060 N   0  0  0  0  0  0  0  0  0  0  0  0
   47.5400   51.4210   18.4640 H   0  0  0  0  0  0  0  0  0  0  0  0
   48.8780   51.6960   15.6980 O   0  0  0  0  0  0  0  0  0  0  0  0
   47.7540   49.8090   17.1990 C   0  0  0  0  0  0  0  0  0  0  0  0
   46.7560   49.4570   16.3000 C   0  0  0  0  0  0  0  0  0  0  0  0
   46.6220   48.1420   15.8990 C   0  0  0  0  0  0  0  0  0  0  0  0
   47.4810   47.1730   16.3880 C   0  0  0  0  0  0  0  0  0  0  0  0
   48.4780   47.5150   17.2810 C   0  0  0  0  0  0  0  0  0  0  0  0
   48.6240   48.8350   17.6860 C   0  0  0  0  0  0  0  0  0  0  0  0
   49.6380   49.1840   18.5880 N   0  0  0  0  0  0  0  0  0  0  0  0
   49.8000   48.6880   19.8350 C   0  0  0  0  0  0  0  0  0  0  0  0
   50.8920   49.2780   20.3760 C   0  0  0  0  0  0  0  0  0  0  0  0
   51.4150   50.1650   19.4270 C   0  0  0  0  0  0  0  0  0  0  0  0
   50.6680   50.1050   18.3550 N   0  0  0  0  0  0  0  0  0  0  0  0
   49.9360   55.0280   18.6870 C   0  0  0  0  0  0  0  0  0  0  0  0
   49.9220   55.0530   20.2160 C   0  0  2  0  0  0  0  0  0  0  0  0
   48.9620   56.1410   20.7000 C   0  0  0  0  0  0  0  0  0  0  0  0
   48.2530   56.7680   19.4980 C   0  0  0  0  0  0  0  0  0  0  0  0
   47.2930   57.8560   19.9830 C   0  0  0  0  0  0  0  0  0  0  0  0
   48.0800   58.9350   20.7310 C   0  0  0  0  0  0  0  0  0  0  0  0
   48.7880   58.3070   21.9330 C   0  0  0  0  0  0  0  0  0  0  0  0
   49.7480   57.2190   21.4480 C   0  0  0  0  0  0  0  0  0  0  0  0
   51.7890   54.1610   21.4300 C   0  0  0  0  0  0  0  0  0  0  0  0
   51.2750   55.3360   20.7140 N   0  0  0  0  0  0  0  0  0  0  0  0
   51.2440   56.1260   21.3400 H   0  0  0  0  0  0  0  0  0  0  0  0
   52.1570   55.6450   19.5810 C   0  0  0  0  0  0  0  0  0  0  0  0
  1  2  1  0  0  0  0
  1 20  1  0  0  0  0
  3  1  1  0  0  0  0
  4  3  2  0  0  0  0
  5  3  1  0  0  0  0
  5  6  1  0  0  0  0
  6  7  1  0  0  0  0
  8  5  2  0  0  0  0
  9  6  1  0  0  0  0
  9 14  2  0  0  0  0
 10  9  1  0  0  0  0
 11 10  2  0  0  0  0
 11 12  1  0  0  0  0
 12 13  2  0  0  0  0
 13 14  1  0  0  0  0
 14 15  1  0  0  0  0
 15 16  1  0  0  0  0
 16 17  2  0  0  0  0
 18 17  1  0  0  0  0
 19 15  1  0  0  0  0
 19 18  2  0  0  0  0
 21 20  1  6  0  0  0
 21 22  1  0  0  0  0
 21 29  1  0  0  0  0
 22 27  1  0  0  0  0
 23 24  1  0  0  0  0
 23 22  1  0  0  0  0
 24 25  1  0  0  0  0
 25 26  1  0  0  0  0
 27 26  1  0  0  0  0
 29 30  1  0  0  0  0
 29 28  1  0  0  0  0
 31 29  1  0  0  0  0
M  END
>  <MODEL>
6

>  <REMARK>
  Name = ZINC41642221
                            x       y       z     vdW  Elec       q    Type
                         _______ _______ _______ _____ _____    ______ ____

>  <TORSDO>
F 7

>  <minimizedAffinity>
-8.3961678072402375

$$$$
ZINC41642221
 OpenBabel10211216323D

 31 33  0  0  1  0  0  0  0  0999 V2000
   49.9840   50.1050   16.9950 N   0  0  0  0  0  0  0  0  0  0  0  0
   50.2520   49.1790   17.1060 H   0  0  0  0  0  0  0  0  0  0  0  0
   48.9580   50.4170   16.1800 C   0  0  0  0  0  0  0  0  0  0  0  0
   48.6240   51.5760   16.0400 O   0  0  0  0  0  0  0  0  0  0  0  0
   48.2320   49.3380   15.4450 C   0  0  0  0  0  0  0  0  0  0  0  0
   46.8930   49.3970   15.3120 N   0  0  0  0  0  0  0  0  0  0  0  0
   46.4070   50.1730   15.6310 H   0  0  0  0  0  0  0  0  0  0  0  0
   48.8490   48.4060   14.9700 O   0  0  0  0  0  0  0  0  0  0  0  0
   46.2020   48.3400   14.7120 C   0  0  0  0  0  0  0  0  0  0  0  0
   46.1790   48.2190   13.3290 C   0  0  0  0  0  0  0  0  0  0  0  0
   45.4960   47.1740   12.7390 C   0  0  0  0  0  0  0  0  0  0  0  0
   44.8350   46.2430   13.5220 C   0  0  0  0  0  0  0  0  0  0  0  0
   44.8540   46.3550   14.8990 C   0  0  0  0  0  0  0  0  0  0  0  0
   45.5420   47.3990   15.5010 C   0  0  0  0  0  0  0  0  0  0  0  0
   45.5660   47.5110   16.8990 N   0  0  0  0  0  0  0  0  0  0  0  0
   44.5000   47.4100   17.7240 C   0  0  0  0  0  0  0  0  0  0  0  0
   44.9440   47.5750   18.9930 C   0  0  0  0  0  0  0  0  0  0  0  0
   46.3260   47.7840   18.9410 C   0  0  0  0  0  0  0  0  0  0  0  0
   46.7010   47.7400   17.6870 N   0  0  0  0  0  0  0  0  0  0  0  0
   50.6970   51.1640   17.7150 C   0  0  0  0  0  0  0  0  0  0  0  0
   50.7390   50.8280   19.2060 C   0  0  2  0  0  0  0  0  0  0  0  0
   51.5180   51.9130   19.9520 C   0  0  0  0  0  0  0  0  0  0  0  0
   50.7830   52.2710   21.2450 C   0  0  0  0  0  0  0  0  0  0  0  0
   51.5620   53.3560   21.9910 C   0  0  0  0  0  0  0  0  0  0  0  0
   51.6750   54.6010   21.1080 C   0  0  0  0  0  0  0  0  0  0  0  0
   52.4090   54.2430   19.8150 C   0  0  0  0  0  0  0  0  0  0  0  0
   51.6310   53.1580   19.0690 C   0  0  0  0  0  0  0  0  0  0  0  0
   52.8060   49.7480   19.7680 C   0  0  0  0  0  0  0  0  0  0  0  0
   51.4020   49.5310   19.3980 N   0  0  0  0  0  0  0  0  0  0  0  0
   51.3570   49.0000   18.5410 H   0  0  0  0  0  0  0  0  0  0  0  0
   50.7220   48.7890   20.4680 C   0  0  0  0  0  0  0  0  0  0  0  0
  1  2  1  0  0  0  0
  1 20  1  0  0  0  0
  3  1  1  0  0  0  0
  4  3  2  0  0  0  0
  5  3  1  0  0  0  0
  6  5  1  0  0  0  0
  6  7  1  0  0  0  0
  8  5  2  0  0  0  0
  9  6  1  0  0  0  0
  9 14  2  0  0  0  0
 10  9  1  0  0  0  0
 11 10  2  0  0  0  0
 11 12  1  0  0  0  0
 12 13  2  0  0  0  0
 13 14  1  0  0  0  0
 14 15  1  0  0  0  0
 15 19  1  0  0  0  0
 15 16  1  0  0  0  0
 16 17  2  0  0  0  0
 18 17  1  0  0  0  0
 19 18  2  0  0  0  0
 21 20  1  6  0  0  0
 21 29  1  0  0  0  0
 21 22  1  0  0  0  0
 22 23  1  0  0  0  0
 23 24  1  0  0  0  0
 25 24  1  0  0  0  0
 26 25  1  0  0  0  0
 27 26  1  0  0  0  0
 27 22  1  0  0  0  0
 29 28  1  0  0  0  0
 29 31  1  0  0  0  0
 30 29  1  0  0  0  0
M  END
>  <MODEL>
7

>  <REMARK>
  Name = ZINC41642221
                            x       y       z     vdW  Elec       q    Type
                         _______ _______ _______ _____ _____    ______ ____

>  <TORSDO>
F 7

>  <minimizedAffinity>
-8.0205039461272083

$$$$
ZINC41642221
 OpenBabel10211216323D

 31 33  0  0  1  0  0  0  0  0999 V2000
   51.0870   52.6530   18.6320 N   0  0  0  0  0  0  0  0  0  0  0  0
   50.1310   52.6860   18.7920 H   0  0  0  0  0  0  0  0  0  0  0  0
   51.8380   53.7590   18.8030 C   0  0  0  0  0  0  0  0  0  0  0  0
   53.0340   53.7180   18.6030 O   0  0  0  0  0  0  0  0  0  0  0  0
   51.1980   55.0360   19.2390 C   0  0  0  0  0  0  0  0  0  0  0  0
   49.9750   55.0180   19.8040 N   0  0  0  0  0  0  0  0  0  0  0  0
   49.5390   54.1730   19.9920 H   0  0  0  0  0  0  0  0  0  0  0  0
   51.7780   56.0900   19.0820 O   0  0  0  0  0  0  0  0  0  0  0  0
   49.3330   56.2190   20.1210 C   0  0  0  0  0  0  0  0  0  0  0  0
   49.5460   56.8170   21.3560 C   0  0  0  0  0  0  0  0  0  0  0  0
   48.9110   58.0030   21.6670 C   0  0  0  0  0  0  0  0  0  0  0  0
   48.0630   58.6010   20.7500 C   0  0  0  0  0  0  0  0  0  0  0  0
   47.8470   58.0130   19.5190 C   0  0  0  0  0  0  0  0  0  0  0  0
   48.4840   56.8240   19.1950 C   0  0  0  0  0  0  0  0  0  0  0  0
   48.2700   56.2300   17.9430 N   0  0  0  0  0  0  0  0  0  0  0  0
   48.1180   56.8820   16.7690 C   0  0  0  0  0  0  0  0  0  0  0  0
   47.9340   55.9520   15.8020 C   0  0  0  0  0  0  0  0  0  0  0  0
   47.9760   54.6900   16.4060 C   0  0  0  0  0  0  0  0  0  0  0  0
   48.1820   54.8560   17.6870 N   0  0  0  0  0  0  0  0  0  0  0  0
   51.7140   51.4000   18.2040 C   0  0  0  0  0  0  0  0  0  0  0  0
   50.8500   50.2190   18.6460 C   0  0  2  0  0  0  0  0  0  0  0  0
   49.4070   50.4440   18.1910 C   0  0  0  0  0  0  0  0  0  0  0  0
   48.5800   49.1890   18.4780 C   0  0  0  0  0  0  0  0  0  0  0  0
   47.1360   49.4140   18.0230 C   0  0  0  0  0  0  0  0  0  0  0  0
   47.1150   49.7070   16.5210 C   0  0  0  0  0  0  0  0  0  0  0  0
   47.9420   50.9620   16.2350 C   0  0  0  0  0  0  0  0  0  0  0  0
   49.3850   50.7370   16.6900 C   0  0  0  0  0  0  0  0  0  0  0  0
   50.7660   48.6920   20.4940 C   0  0  0  0  0  0  0  0  0  0  0  0
   50.8890   50.1040   20.1110 N   0  0  0  0  0  0  0  0  0  0  0  0
   50.1260   50.6290   20.5100 H   0  0  0  0  0  0  0  0  0  0  0  0
   52.1640   50.6380   20.6080 C   0  0  0  0  0  0  0  0  0  0  0  0
  1  2  1  0  0  0  0
  1  3  1  0  0  0  0
  3  5  1  0  0  0  0
  4  3  2  0  0  0  0
  5  6  1  0  0  0  0
  6  7  1  0  0  0  0
  6  9  1  0  0  0  0
  8  5  2  0  0  0  0
  9 10  2  0  0  0  0
 10 11  1  0  0  0  0
 12 11  2  0  0  0  0
 13 12  1  0  0  0  0
 14 13  2  0  0  0  0
 14  9  1  0  0  0  0
 15 14  1  0  0  0  0
 16 15  1  0  0  0  0
 17 18  1  0  0  0  0
 17 16  2  0  0  0  0
 18 19  2  0  0  0  0
 19 15  1  0  0  0  0
 20  1  1  0  0  0  0
 20 21  1  0  0  0  0
 21 22  1  1  0  0  0
 21 29  1  0  0  0  0
 22 23  1  0  0  0  0
 24 23  1  0  0  0  0
 25 24  1  0  0  0  0
 26 25  1  0  0  0  0
 26 27  1  0  0  0  0
 27 22  1  0  0  0  0
 29 28  1  0  0  0  0
 29 30  1  0  0  0  0
 29 31  1  0  0  0  0
M  END
>  <MODEL>
8

>  <REMARK>
  Name = ZINC41642221
                            x       y       z     vdW  Elec       q    Type
                         _______ _______ _______ _____ _____    ______ ____

>  <TORSDO>
F 7

>  <minimizedAffinity>
-7.9920155505920718

$$$$
ZINC41642221
 OpenBabel10211216323D

 31 33  0  0  1  0  0  0  0  0999 V2000
   50.6910   52.1030   18.9890 N   0  0  0  0  0  0  0  0  0  0  0  0
   49.8830   51.8260   19.4480 H   0  0  0  0  0  0  0  0  0  0  0  0
   51.0760   53.3940   19.0190 C   0  0  0  0  0  0  0  0  0  0  0  0
   52.0870   53.7410   18.4450 O   0  0  0  0  0  0  0  0  0  0  0  0
   50.2560   54.4000   19.7600 C   0  0  0  0  0  0  0  0  0  0  0  0
   50.0770   55.6330   19.2460 N   0  0  0  0  0  0  0  0  0  0  0  0
   50.4210   55.8460   18.3650 H   0  0  0  0  0  0  0  0  0  0  0  0
   49.7520   54.1080   20.8240 O   0  0  0  0  0  0  0  0  0  0  0  0
   49.3940   56.6050   19.9820 C   0  0  0  0  0  0  0  0  0  0  0  0
   48.0150   56.7190   19.8730 C   0  0  0  0  0  0  0  0  0  0  0  0
   47.3420   57.6810   20.6020 C   0  0  0  0  0  0  0  0  0  0  0  0
   48.0390   58.5310   21.4430 C   0  0  0  0  0  0  0  0  0  0  0  0
   49.4110   58.4240   21.5590 C   0  0  0  0  0  0  0  0  0  0  0  0
   50.0950   57.4570   20.8340 C   0  0  0  0  0  0  0  0  0  0  0  0
   51.4870   57.3440   20.9550 N   0  0  0  0  0  0  0  0  0  0  0  0
   52.1950   57.4200   22.1040 C   0  0  0  0  0  0  0  0  0  0  0  0
   53.5040   57.2590   21.7930 C   0  0  0  0  0  0  0  0  0  0  0  0
   53.5980   57.0790   20.4090 C   0  0  0  0  0  0  0  0  0  0  0  0
   52.3900   57.1240   19.9060 N   0  0  0  0  0  0  0  0  0  0  0  0
   51.4950   51.1170   18.2620 C   0  0  0  0  0  0  0  0  0  0  0  0
   50.8410   49.7390   18.3800 C   0  0  2  0  0  0  0  0  0  0  0  0
   49.3220   49.9000   18.4600 C   0  0  0  0  0  0  0  0  0  0  0  0
   48.6660   48.5210   18.5390 C   0  0  0  0  0  0  0  0  0  0  0  0
   47.1460   48.6820   18.6190 C   0  0  0  0  0  0  0  0  0  0  0  0
   46.6450   49.4140   17.3730 C   0  0  0  0  0  0  0  0  0  0  0  0
   47.3010   50.7930   17.2930 C   0  0  0  0  0  0  0  0  0  0  0  0
   48.8200   50.6320   17.2130 C   0  0  0  0  0  0  0  0  0  0  0  0
   52.7490   49.3790   19.7880 C   0  0  0  0  0  0  0  0  0  0  0  0
   51.3270   49.0680   19.5930 N   0  0  0  0  0  0  0  0  0  0  0  0
   51.2100   48.0710   19.4960 H   0  0  0  0  0  0  0  0  0  0  0  0
   50.5590   49.5400   20.7530 C   0  0  0  0  0  0  0  0  0  0  0  0
  1  3  1  0  0  0  0
  1  2  1  0  0  0  0
  3  5  1  0  0  0  0
  4  3  2  0  0  0  0
  5  8  2  0  0  0  0
  6  5  1  0  0  0  0
  6  9  1  0  0  0  0
  7  6  1  0  0  0  0
  9 14  1  0  0  0  0
 10  9  2  0  0  0  0
 10 11  1  0  0  0  0
 11 12  2  0  0  0  0
 12 13  1  0  0  0  0
 14 15  1  0  0  0  0
 14 13  2  0  0  0  0
 15 16  1  0  0  0  0
 17 16  2  0  0  0  0
 18 17  1  0  0  0  0
 19 18  2  0  0  0  0
 19 15  1  0  0  0  0
 20  1  1  0  0  0  0
 21 20  1  1  0  0  0
 21 22  1  0  0  0  0
 21 29  1  0  0  0  0
 22 23  1  0  0  0  0
 23 24  1  0  0  0  0
 25 24  1  0  0  0  0
 26 25  1  0  0  0  0
 27 26  1  0  0  0  0
 27 22  1  0  0  0  0
 29 28  1  0  0  0  0
 29 31  1  0  0  0  0
 30 29  1  0  0  0  0
M  END
>  <MODEL>
9

>  <REMARK>
  Name = ZINC41642221
                            x       y       z     vdW  Elec       q    Type
                         _______ _______ _______ _____ _____    ______ ____

>  <TORSDO>
F 7

>  <minimizedAffinity>
-7.9809571083617001

$$$$
ZINC67268336
 OpenBabel10211216343D

 30 32  0  0  1  0  0  0  0  0999 V2000
   50.7950   50.7660   18.0410 N   0  0  0  0  0  0  0  0  0  0  0  0
   51.1350   51.5960   17.6730 H   0  0  0  0  0  0  0  0  0  0  0  0
   51.2890   50.2930   19.2020 C   0  0  0  0  0  0  0  0  0  0  0  0
   50.8630   49.2540   19.6640 O   0  0  0  0  0  0  0  0  0  0  0  0
   49.7440   50.0280   17.3360 C   0  0  0  0  0  0  0  0  0  0  0  0
   48.4080   50.7530   17.5080 C   0  0  2  0  0  0  0  0  0  0  0  0
   44.3320   46.9430   19.0090 C   0  0  0  0  0  0  0  0  0  0  0  0
   45.3940   47.9370   18.6170 C   0  0  0  0  0  0  0  0  0  0  0  0
   45.1200   48.9060   17.6710 C   0  0  0  0  0  0  0  0  0  0  0  0
   46.0950   49.8180   17.3120 C   0  0  0  0  0  0  0  0  0  0  0  0
   47.3440   49.7600   17.9000 C   0  0  0  0  0  0  0  0  0  0  0  0
   47.6190   48.7920   18.8470 C   0  0  0  0  0  0  0  0  0  0  0  0
   46.6430   47.8830   19.2090 C   0  0  0  0  0  0  0  0  0  0  0  0
   48.0340   51.3960   16.2420 N   0  0  0  0  0  0  0  0  0  0  0  0
   47.0750   51.1730   16.0210 H   0  0  0  0  0  0  0  0  0  0  0  0
   48.9100   50.9090   15.1680 C   0  0  0  0  0  0  0  0  0  0  0  0
   48.1800   52.8530   16.3700 C   0  0  0  0  0  0  0  0  0  0  0  0
   52.3700   51.0520   19.9280 C   0  0  0  0  0  0  0  0  0  0  0  0
   52.0010   52.4680   20.0090 N   0  0  0  0  0  0  0  0  0  0  0  0
   51.2290   52.9930   20.9810 C   0  0  0  0  0  0  0  0  0  0  0  0
   51.1170   54.4710   20.6610 C   0  0  2  0  0  0  0  0  0  0  0  0
   49.6580   54.8580   20.4080 C   0  0  0  0  0  0  0  0  0  0  0  0
   51.9130   54.6190   19.4290 N   0  0  0  0  0  0  0  0  0  0  0  0
   52.0640   55.4390   18.9330 H   0  0  0  0  0  0  0  0  0  0  0  0
   50.7300   52.4070   21.9170 O   0  0  0  0  0  0  0  0  0  0  0  0
   52.3910   53.3980   19.1310 C   0  0  0  0  0  0  0  0  0  0  0  0
   53.0970   53.1660   18.1690 O   0  0  0  0  0  0  0  0  0  0  0  0
   51.7100   55.3130   21.7910 C   0  0  0  0  0  0  0  0  0  0  0  0
   50.9720   56.5960   22.1800 C   0  0  0  0  0  0  0  0  0  0  0  0
   52.2990   56.6770   21.4220 C   0  0  0  0  0  0  0  0  0  0  0  0
  1  3  1  0  0  0  0
  2  1  1  0  0  0  0
  3  4  2  0  0  0  0
  3 18  1  0  0  0  0
  5  6  1  0  0  0  0
  5  1  1  0  0  0  0
  6 14  1  6  0  0  0
  6 11  1  0  0  0  0
  8  7  1  0  0  0  0
  8 13  2  0  0  0  0
  9  8  1  0  0  0  0
 10  9  2  0  0  0  0
 10 11  1  0  0  0  0
 11 12  2  0  0  0  0
 12 13  1  0  0  0  0
 14 17  1  0  0  0  0
 15 14  1  0  0  0  0
 16 14  1  0  0  0  0
 18 19  1  0  0  0  0
 19 20  1  0  0  0  0
 20 25  2  0  0  0  0
 21 22  1  6  0  0  0
 21 20  1  0  0  0  0
 21 28  1  0  0  0  0
 23 21  1  0  0  0  0
 24 23  1  0  0  0  0
 26 23  1  0  0  0  0
 26 19  1  0  0  0  0
 27 26  2  0  0  0  0
 28 29  1  0  0  0  0
 30 28  1  0  0  0  0
 30 29  1  0  0  0  0
M  END
>  <MODEL>
1

>  <REMARK>
  Name = ZINC67268336
                            x       y       z     vdW  Elec       q    Type
                         _______ _______ _______ _____ _____    ______ ____

>  <TORSDO>
F 7

>  <minimizedAffinity>
-8.8420598392352687

$$$$
ZINC67268336
 OpenBabel10211216343D

 30 32  0  0  1  0  0  0  0  0999 V2000
   50.5170   52.8650   19.2660 N   0  0  0  0  0  0  0  0  0  0  0  0
   49.8340   52.3660   19.7400 H   0  0  0  0  0  0  0  0  0  0  0  0
   51.5760   52.2200   18.7380 C   0  0  0  0  0  0  0  0  0  0  0  0
   52.4320   52.8450   18.1460 O   0  0  0  0  0  0  0  0  0  0  0  0
   50.3980   54.3180   19.1250 C   0  0  0  0  0  0  0  0  0  0  0  0
   49.9870   54.9290   20.4670 C   0  0  2  0  0  0  0  0  0  0  0  0
   46.9200   59.7360   19.5310 C   0  0  0  0  0  0  0  0  0  0  0  0
   47.7200   58.4830   19.7760 C   0  0  0  0  0  0  0  0  0  0  0  0
   48.2360   58.2250   21.0320 C   0  0  0  0  0  0  0  0  0  0  0  0
   48.9700   57.0740   21.2560 C   0  0  0  0  0  0  0  0  0  0  0  0
   49.1860   56.1820   20.2230 C   0  0  0  0  0  0  0  0  0  0  0  0
   48.6700   56.4390   18.9670 C   0  0  0  0  0  0  0  0  0  0  0  0
   47.9330   57.5860   18.7440 C   0  0  0  0  0  0  0  0  0  0  0  0
   51.1890   55.2590   21.2430 N   0  0  0  0  0  0  0  0  0  0  0  0
   50.9960   56.0470   21.8430 H   0  0  0  0  0  0  0  0  0  0  0  0
   52.2860   55.5970   20.3260 C   0  0  0  0  0  0  0  0  0  0  0  0
   51.5760   54.1020   22.0630 C   0  0  0  0  0  0  0  0  0  0  0  0
   51.6990   50.7250   18.8830 C   0  0  0  0  0  0  0  0  0  0  0  0
   50.4240   50.0950   18.5310 N   0  0  0  0  0  0  0  0  0  0  0  0
   49.7830   50.2850   17.3610 C   0  0  0  0  0  0  0  0  0  0  0  0
   48.5240   49.4450   17.4420 C   0  0  2  0  0  0  0  0  0  0  0  0
   47.2790   50.3290   17.3410 C   0  0  0  0  0  0  0  0  0  0  0  0
   48.6100   48.8210   18.7740 N   0  0  0  0  0  0  0  0  0  0  0  0
   47.9670   48.2120   19.1710 H   0  0  0  0  0  0  0  0  0  0  0  0
   50.1400   50.9820   16.4360 O   0  0  0  0  0  0  0  0  0  0  0  0
   49.7540   49.2570   19.3310 C   0  0  0  0  0  0  0  0  0  0  0  0
   50.1350   48.9290   20.4370 O   0  0  0  0  0  0  0  0  0  0  0  0
   48.5180   48.3770   16.3460 C   0  0  0  0  0  0  0  0  0  0  0  0
   47.2910   47.4680   16.2530 C   0  0  0  0  0  0  0  0  0  0  0  0
   48.6140   46.9140   16.7850 C   0  0  0  0  0  0  0  0  0  0  0  0
  1  2  1  0  0  0  0
  3 18  1  0  0  0  0
  3  1  1  0  0  0  0
  4  3  2  0  0  0  0
  5  1  1  0  0  0  0
  6  5  1  6  0  0  0
  6 14  1  0  0  0  0
  7  8  1  0  0  0  0
  8  9  2  0  0  0  0
  9 10  1  0  0  0  0
 11  6  1  0  0  0  0
 11 10  2  0  0  0  0
 12 11  1  0  0  0  0
 13 12  2  0  0  0  0
 13  8  1  0  0  0  0
 14 15  1  0  0  0  0
 14 17  1  0  0  0  0
 16 14  1  0  0  0  0
 19 18  1  0  0  0  0
 19 26  1  0  0  0  0
 20 21  1  0  0  0  0
 20 19  1  0  0  0  0
 21 28  1  6  0  0  0
 21 23  1  0  0  0  0
 22 21  1  0  0  0  0
 23 24  1  0  0  0  0
 23 26  1  0  0  0  0
 25 20  2  0  0  0  0
 26 27  2  0  0  0  0
 28 30  1  0  0  0  0
 29 28  1  0  0  0  0
 29 30  1  0  0  0  0
M  END
>  <MODEL>
2

>  <REMARK>
  Name = ZINC67268336
                            x       y       z     vdW  Elec       q    Type
                         _______ _______ _______ _____ _____    ______ ____

>  <TORSDO>
F 7

>  <minimizedAffinity>
-8.4679283351016199

$$$$
ZINC67268336
 OpenBabel10211216343D

 30 32  0  0  1  0  0  0  0  0999 V2000
   50.1410   53.3790   18.4730 N   0  0  0  0  0  0  0  0  0  0  0  0
   51.0100   53.6780   18.1640 H   0  0  0  0  0  0  0  0  0  0  0  0
   49.1410   54.2680   18.6330 C   0  0  0  0  0  0  0  0  0  0  0  0
   48.0540   53.8940   19.0210 O   0  0  0  0  0  0  0  0  0  0  0  0
   49.9170   51.9620   18.7680 C   0  0  0  0  0  0  0  0  0  0  0  0
   49.6000   51.2150   17.4710 C   0  0  2  0  0  0  0  0  0  0  0  0
   44.8320   48.0330   18.2050 C   0  0  0  0  0  0  0  0  0  0  0  0
   46.0750   48.8630   18.0150 C   0  0  0  0  0  0  0  0  0  0  0  0
   47.2450   48.5150   18.6630 C   0  0  0  0  0  0  0  0  0  0  0  0
   48.3870   49.2750   18.4870 C   0  0  0  0  0  0  0  0  0  0  0  0
   48.3560   50.3840   17.6620 C   0  0  0  0  0  0  0  0  0  0  0  0
   47.1870   50.7310   17.0130 C   0  0  0  0  0  0  0  0  0  0  0  0
   46.0480   49.9690   17.1850 C   0  0  0  0  0  0  0  0  0  0  0  0
   50.7250   50.3380   17.1240 N   0  0  0  0  0  0  0  0  0  0  0  0
   50.5950   49.4360   17.5560 H   0  0  0  0  0  0  0  0  0  0  0  0
   51.9780   50.9350   17.6060 C   0  0  0  0  0  0  0  0  0  0  0  0
   50.7890   50.1780   15.6650 C   0  0  0  0  0  0  0  0  0  0  0  0
   49.3720   55.7260   18.3290 C   0  0  0  0  0  0  0  0  0  0  0  0
   49.9870   56.3750   19.4900 N   0  0  0  0  0  0  0  0  0  0  0  0
   51.2950   56.2880   19.7990 C   0  0  0  0  0  0  0  0  0  0  0  0
   51.4720   57.1060   21.0640 C   0  0  2  0  0  0  0  0  0  0  0  0
   51.9700   56.2240   22.2100 C   0  0  0  0  0  0  0  0  0  0  0  0
   50.1140   57.6040   21.3460 N   0  0  0  0  0  0  0  0  0  0  0  0
   49.8470   58.1670   22.0890 H   0  0  0  0  0  0  0  0  0  0  0  0
   52.1530   55.6840   19.1930 O   0  0  0  0  0  0  0  0  0  0  0  0
   49.3190   57.1280   20.3710 C   0  0  0  0  0  0  0  0  0  0  0  0
   48.1280   57.3560   20.3000 O   0  0  0  0  0  0  0  0  0  0  0  0
   52.4340   58.2710   20.8220 C   0  0  0  0  0  0  0  0  0  0  0  0
   53.9310   57.9960   20.9800 C   0  0  0  0  0  0  0  0  0  0  0  0
   53.1900   58.8250   22.0310 C   0  0  0  0  0  0  0  0  0  0  0  0
  1  3  1  0  0  0  0
  1  5  1  0  0  0  0
  2  1  1  0  0  0  0
  3  4  2  0  0  0  0
  6 14  1  1  0  0  0
  6 11  1  0  0  0  0
  6  5  1  0  0  0  0
  8  7  1  0  0  0  0
  8  9  2  0  0  0  0
 10  9  1  0  0  0  0
 11 10  2  0  0  0  0
 12 13  2  0  0  0  0
 12 11  1  0  0  0  0
 13  8  1  0  0  0  0
 14 15  1  0  0  0  0
 14 16  1  0  0  0  0
 17 14  1  0  0  0  0
 18  3  1  0  0  0  0
 18 19  1  0  0  0  0
 19 20  1  0  0  0  0
 19 26  1  0  0  0  0
 20 21  1  0  0  0  0
 21 28  1  6  0  0  0
 21 23  1  0  0  0  0
 21 22  1  0  0  0  0
 23 24  1  0  0  0  0
 25 20  2  0  0  0  0
 26 23  1  0  0  0  0
 27 26  2  0  0  0  0
 28 29  1  0  0  0  0
 28 30  1  0  0  0  0
 29 30  1  0  0  0  0
M  END
>  <MODEL>
3

>  <REMARK>
  Name = ZINC67268336
                            x       y       z     vdW  Elec       q    Type
                         _______ _______ _______ _____ _____    ______ ____

>  <TORSDO>
F 7

>  <minimizedAffinity>
-8.2655202691915814

$$$$
ZINC67268336
 OpenBabel10211216343D

 30 32  0  0  1  0  0  0  0  0999 V2000
   49.9740   52.4760   17.3650 N   0  0  0  0  0  0  0  0  0  0  0  0
   49.1900   53.0040   17.1520 H   0  0  0  0  0  0  0  0  0  0  0  0
   50.1770   51.2940   16.7490 C   0  0  0  0  0  0  0  0  0  0  0  0
   51.1590   50.6330   17.0170 O   0  0  0  0  0  0  0  0  0  0  0  0
   50.9370   52.9620   18.3560 C   0  0  0  0  0  0  0  0  0  0  0  0
   50.3100   52.8980   19.7510 C   0  0  2  0  0  0  0  0  0  0  0  0
   48.4570   58.1570   21.2660 C   0  0  0  0  0  0  0  0  0  0  0  0
   48.9410   56.7860   20.8710 C   0  0  0  0  0  0  0  0  0  0  0  0
   50.1340   56.3020   21.3730 C   0  0  0  0  0  0  0  0  0  0  0  0
   50.5780   55.0430   21.0110 C   0  0  0  0  0  0  0  0  0  0  0  0
   49.8260   54.2690   20.1470 C   0  0  0  0  0  0  0  0  0  0  0  0
   48.6320   54.7520   19.6460 C   0  0  0  0  0  0  0  0  0  0  0  0
   48.1870   56.0080   20.0110 C   0  0  0  0  0  0  0  0  0  0  0  0
   51.3140   52.4340   20.7180 N   0  0  0  0  0  0  0  0  0  0  0  0
   51.5120   53.1730   21.3760 H   0  0  0  0  0  0  0  0  0  0  0  0
   52.5460   52.0680   20.0060 C   0  0  0  0  0  0  0  0  0  0  0  0
   50.7960   51.2620   21.4370 C   0  0  0  0  0  0  0  0  0  0  0  0
   49.1870   50.7950   15.7290 C   0  0  0  0  0  0  0  0  0  0  0  0
   48.3640   49.7390   16.3250 N   0  0  0  0  0  0  0  0  0  0  0  0
   47.3210   49.9650   17.1450 C   0  0  0  0  0  0  0  0  0  0  0  0
   46.7800   48.5960   17.5090 C   0  0  2  0  0  0  0  0  0  0  0  0
   46.8780   48.3610   19.0170 C   0  0  0  0  0  0  0  0  0  0  0  0
   47.6670   47.6710   16.7820 N   0  0  0  0  0  0  0  0  0  0  0  0
   47.6170   46.7020   16.7810 H   0  0  0  0  0  0  0  0  0  0  0  0
   46.8990   51.0400   17.5160 O   0  0  0  0  0  0  0  0  0  0  0  0
   48.5550   48.4300   16.1170 C   0  0  0  0  0  0  0  0  0  0  0  0
   49.4340   47.9800   15.4090 O   0  0  0  0  0  0  0  0  0  0  0  0
   45.3340   48.4440   17.0320 C   0  0  0  0  0  0  0  0  0  0  0  0
   44.3270   47.8380   18.0110 C   0  0  0  0  0  0  0  0  0  0  0  0
   44.8100   47.0230   16.8100 C   0  0  0  0  0  0  0  0  0  0  0  0
  1  5  1  0  0  0  0
  2  1  1  0  0  0  0
  3  4  2  0  0  0  0
  3  1  1  0  0  0  0
  6  5  1  1  0  0  0
  6 11  1  0  0  0  0
  6 14  1  0  0  0  0
  8  7  1  0  0  0  0
  8  9  2  0  0  0  0
 10  9  1  0  0  0  0
 11 10  2  0  0  0  0
 12 13  2  0  0  0  0
 12 11  1  0  0  0  0
 13  8  1  0  0  0  0
 14 15  1  0  0  0  0
 14 17  1  0  0  0  0
 16 14  1  0  0  0  0
 18 19  1  0  0  0  0
 18  3  1  0  0  0  0
 19 20  1  0  0  0  0
 20 21  1  0  0  0  0
 20 25  2  0  0  0  0
 21 28  1  6  0  0  0
 21 22  1  0  0  0  0
 23 21  1  0  0  0  0
 24 23  1  0  0  0  0
 26 19  1  0  0  0  0
 26 23  1  0  0  0  0
 27 26  2  0  0  0  0
 28 29  1  0  0  0  0
 30 28  1  0  0  0  0
 30 29  1  0  0  0  0
M  END
>  <MODEL>
4

>  <REMARK>
  Name = ZINC67268336
                            x       y       z     vdW  Elec       q    Type
                         _______ _______ _______ _____ _____    ______ ____

>  <TORSDO>
F 7

>  <minimizedAffinity>
-8.2528167985735905

$$$$
ZINC67268336
 OpenBabel10211216343D

 30 32  0  0  1  0  0  0  0  0999 V2000
   50.5690   51.1240   20.5550 N   0  0  0  0  0  0  0  0  0  0  0  0
   49.7200   51.0980   21.0220 H   0  0  0  0  0  0  0  0  0  0  0  0
   51.4980   52.0380   20.9010 C   0  0  0  0  0  0  0  0  0  0  0  0
   52.5610   52.0720   20.3160 O   0  0  0  0  0  0  0  0  0  0  0  0
   50.8420   50.1730   19.4760 C   0  0  0  0  0  0  0  0  0  0  0  0
   50.2030   50.6750   18.1790 C   0  0  2  0  0  0  0  0  0  0  0  0
   44.8520   48.5420   17.7170 C   0  0  0  0  0  0  0  0  0  0  0  0
   46.2480   49.0990   17.8370 C   0  0  0  0  0  0  0  0  0  0  0  0
   46.5470   50.3370   17.3020 C   0  0  0  0  0  0  0  0  0  0  0  0
   47.8270   50.8480   17.4130 C   0  0  0  0  0  0  0  0  0  0  0  0
   48.8070   50.1190   18.0600 C   0  0  0  0  0  0  0  0  0  0  0  0
   48.5080   48.8810   18.5970 C   0  0  0  0  0  0  0  0  0  0  0  0
   47.2280   48.3730   18.4900 C   0  0  0  0  0  0  0  0  0  0  0  0
   51.0060   50.2310   17.0330 N   0  0  0  0  0  0  0  0  0  0  0  0
   51.1590   49.2360   17.0950 H   0  0  0  0  0  0  0  0  0  0  0  0
   52.3000   50.9270   17.0440 C   0  0  0  0  0  0  0  0  0  0  0  0
   50.2940   50.5410   15.7860 C   0  0  0  0  0  0  0  0  0  0  0  0
   51.2180   53.0170   22.0120 C   0  0  0  0  0  0  0  0  0  0  0  0
   50.8430   54.3120   21.4380 N   0  0  0  0  0  0  0  0  0  0  0  0
   49.9040   54.4740   20.4860 C   0  0  0  0  0  0  0  0  0  0  0  0
   49.8580   55.9630   20.2050 C   0  0  2  0  0  0  0  0  0  0  0  0
   50.2300   56.2480   18.7490 C   0  0  0  0  0  0  0  0  0  0  0  0
   50.8740   56.5180   21.1170 N   0  0  0  0  0  0  0  0  0  0  0  0
   51.1190   57.4520   21.2110 H   0  0  0  0  0  0  0  0  0  0  0  0
   49.2340   53.6100   19.9630 O   0  0  0  0  0  0  0  0  0  0  0  0
   51.3900   55.4790   21.7980 C   0  0  0  0  0  0  0  0  0  0  0  0
   52.2560   55.5880   22.6420 O   0  0  0  0  0  0  0  0  0  0  0  0
   48.4750   56.5300   20.5290 C   0  0  0  0  0  0  0  0  0  0  0  0
   47.9180   57.6110   19.6000 C   0  0  0  0  0  0  0  0  0  0  0  0
   48.4000   57.9830   21.0040 C   0  0  0  0  0  0  0  0  0  0  0  0
  1  3  1  0  0  0  0
  1  2  1  0  0  0  0
  3 18  1  0  0  0  0
  4  3  2  0  0  0  0
  5  1  1  0  0  0  0
  6 14  1  6  0  0  0
  6  5  1  0  0  0  0
  7  8  1  0  0  0  0
  8 13  2  0  0  0  0
  9 10  2  0  0  0  0
  9  8  1  0  0  0  0
 10 11  1  0  0  0  0
 11  6  1  0  0  0  0
 11 12  2  0  0  0  0
 13 12  1  0  0  0  0
 14 16  1  0  0  0  0
 14 15  1  0  0  0  0
 17 14  1  0  0  0  0
 19 26  1  0  0  0  0
 19 18  1  0  0  0  0
 20 19  1  0  0  0  0
 21 22  1  6  0  0  0
 21 20  1  0  0  0  0
 21 28  1  0  0  0  0
 21 23  1  0  0  0  0
 23 24  1  0  0  0  0
 23 26  1  0  0  0  0
 25 20  2  0  0  0  0
 26 27  2  0  0  0  0
 28 30  1  0  0  0  0
 29 28  1  0  0  0  0
 29 30  1  0  0  0  0
M  END
>  <MODEL>
5

>  <REMARK>
  Name = ZINC67268336
                            x       y       z     vdW  Elec       q    Type
                         _______ _______ _______ _____ _____    ______ ____

>  <TORSDO>
F 7

>  <minimizedAffinity>
-8.1827901435258621

$$$$
ZINC67268336
 OpenBabel10211216343D

 30 32  0  0  1  0  0  0  0  0999 V2000
   50.9710   52.6180   19.1090 N   0  0  0  0  0  0  0  0  0  0  0  0
   51.6010   52.8730   18.4170 H   0  0  0  0  0  0  0  0  0  0  0  0
   51.1720   53.0170   20.3800 C   0  0  0  0  0  0  0  0  0  0  0  0
   50.3840   52.6970   21.2470 O   0  0  0  0  0  0  0  0  0  0  0  0
   49.8050   51.7990   18.7720 C   0  0  0  0  0  0  0  0  0  0  0  0
   50.2340   50.6530   17.8530 C   0  0  2  0  0  0  0  0  0  0  0  0
   45.5720   48.3880   15.2980 C   0  0  0  0  0  0  0  0  0  0  0  0
   46.7880   48.9780   15.9650 C   0  0  0  0  0  0  0  0  0  0  0  0
   48.0510   48.5480   15.6040 C   0  0  0  0  0  0  0  0  0  0  0  0
   49.1670   49.0900   16.2150 C   0  0  0  0  0  0  0  0  0  0  0  0
   49.0180   50.0630   17.1860 C   0  0  0  0  0  0  0  0  0  0  0  0
   47.7550   50.4940   17.5460 C   0  0  0  0  0  0  0  0  0  0  0  0
   46.6400   49.9550   16.9320 C   0  0  0  0  0  0  0  0  0  0  0  0
   50.9090   49.6170   18.6460 N   0  0  0  0  0  0  0  0  0  0  0  0
   50.9230   48.7520   18.1260 H   0  0  0  0  0  0  0  0  0  0  0  0
   50.1850   49.4180   19.9090 C   0  0  0  0  0  0  0  0  0  0  0  0
   52.2860   50.0390   18.9320 C   0  0  0  0  0  0  0  0  0  0  0  0
   52.3720   53.8600   20.7270 C   0  0  0  0  0  0  0  0  0  0  0  0
   51.9300   55.2020   21.1150 N   0  0  0  0  0  0  0  0  0  0  0  0
   51.7420   56.2160   20.2480 C   0  0  0  0  0  0  0  0  0  0  0  0
   51.2910   57.3950   21.0870 C   0  0  2  0  0  0  0  0  0  0  0  0
   52.2880   58.5500   20.9730 C   0  0  0  0  0  0  0  0  0  0  0  0
   51.2780   56.8570   22.4590 N   0  0  0  0  0  0  0  0  0  0  0  0
   51.0370   57.3370   23.2670 H   0  0  0  0  0  0  0  0  0  0  0  0
   51.8990   56.1910   19.0460 O   0  0  0  0  0  0  0  0  0  0  0  0
   51.6600   55.5700   22.3720 C   0  0  0  0  0  0  0  0  0  0  0  0
   51.7530   54.8270   23.3280 O   0  0  0  0  0  0  0  0  0  0  0  0
   49.8900   57.8480   20.6720 C   0  0  0  0  0  0  0  0  0  0  0  0
   48.8770   58.1210   21.7850 C   0  0  0  0  0  0  0  0  0  0  0  0
   48.7340   56.8740   20.9100 C   0  0  0  0  0  0  0  0  0  0  0  0
  1  3  1  0  0  0  0
  2  1  1  0  0  0  0
  3 18  1  0  0  0  0
  3  4  2  0  0  0  0
  5  1  1  0  0  0  0
  6 11  1  1  0  0  0
  6 14  1  0  0  0  0
  6  5  1  0  0  0  0
  7  8  1  0  0  0  0
  8 13  1  0  0  0  0
  9  8  2  0  0  0  0
  9 10  1  0  0  0  0
 10 11  2  0  0  0  0
 11 12  1  0  0  0  0
 13 12  2  0  0  0  0
 14 17  1  0  0  0  0
 14 16  1  0  0  0  0
 15 14  1  0  0  0  0
 18 19  1  0  0  0  0
 19 26  1  0  0  0  0
 20 21  1  0  0  0  0
 20 19  1  0  0  0  0
 21 28  1  6  0  0  0
 21 23  1  0  0  0  0
 22 21  1  0  0  0  0
 23 24  1  0  0  0  0
 25 20  2  0  0  0  0
 26 23  1  0  0  0  0
 26 27  2  0  0  0  0
 28 30  1  0  0  0  0
 28 29  1  0  0  0  0
 30 29  1  0  0  0  0
M  END
>  <MODEL>
6

>  <REMARK>
  Name = ZINC67268336
                            x       y       z     vdW  Elec       q    Type
                         _______ _______ _______ _____ _____    ______ ____

>  <TORSDO>
F 7

>  <minimizedAffinity>
-7.9578286148510289

$$$$
ZINC67268336
 OpenBabel10211216343D

 30 32  0  0  1  0  0  0  0  0999 V2000
   50.3370   52.4250   19.2600 N   0  0  0  0  0  0  0  0  0  0  0  0
   50.2340   52.9940   18.4820 H   0  0  0  0  0  0  0  0  0  0  0  0
   50.4810   51.0930   19.1040 C   0  0  0  0  0  0  0  0  0  0  0  0
   50.6100   50.3800   20.0780 O   0  0  0  0  0  0  0  0  0  0  0  0
   50.3360   53.0100   20.6020 C   0  0  0  0  0  0  0  0  0  0  0  0
   51.0290   54.3730   20.5660 C   0  0  2  0  0  0  0  0  0  0  0  0
   47.0570   58.5630   20.7990 C   0  0  0  0  0  0  0  0  0  0  0  0
   48.0930   57.4710   20.7380 C   0  0  0  0  0  0  0  0  0  0  0  0
   49.2240   57.5460   21.5290 C   0  0  0  0  0  0  0  0  0  0  0  0
   50.1750   56.5430   21.4730 C   0  0  0  0  0  0  0  0  0  0  0  0
   49.9930   55.4660   20.6270 C   0  0  0  0  0  0  0  0  0  0  0  0
   48.8610   55.3900   19.8380 C   0  0  0  0  0  0  0  0  0  0  0  0
   47.9090   56.3890   19.8960 C   0  0  0  0  0  0  0  0  0  0  0  0
   51.7990   54.4980   19.3210 N   0  0  0  0  0  0  0  0  0  0  0  0
   51.2280   54.2060   18.5420 H   0  0  0  0  0  0  0  0  0  0  0  0
   52.9950   53.6480   19.3970 C   0  0  0  0  0  0  0  0  0  0  0  0
   52.2040   55.8980   19.1340 C   0  0  0  0  0  0  0  0  0  0  0  0
   50.4830   50.4910   17.7230 C   0  0  0  0  0  0  0  0  0  0  0  0
   49.1130   50.1350   17.3450 N   0  0  0  0  0  0  0  0  0  0  0  0
   48.5680   48.9170   17.5360 C   0  0  0  0  0  0  0  0  0  0  0  0
   47.1540   49.0120   16.9990 C   0  0  2  0  0  0  0  0  0  0  0  0
   46.9500   48.0320   15.8420 C   0  0  0  0  0  0  0  0  0  0  0  0
   47.0580   50.4030   16.5220 N   0  0  0  0  0  0  0  0  0  0  0  0
   46.2850   50.8220   16.1110 H   0  0  0  0  0  0  0  0  0  0  0  0
   49.0980   47.9480   18.0350 O   0  0  0  0  0  0  0  0  0  0  0  0
   48.2470   50.9790   16.7710 C   0  0  0  0  0  0  0  0  0  0  0  0
   48.5080   52.1340   16.5030 O   0  0  0  0  0  0  0  0  0  0  0  0
   46.1360   48.7520   18.1110 C   0  0  0  0  0  0  0  0  0  0  0  0
   45.5990   47.3270   18.2590 C   0  0  0  0  0  0  0  0  0  0  0  0
   44.7000   48.4290   17.6940 C   0  0  0  0  0  0  0  0  0  0  0  0
  1  5  1  0  0  0  0
  2  1  1  0  0  0  0
  3  1  1  0  0  0  0
  3  4  2  0  0  0  0
  6 14  1  6  0  0  0
  6  5  1  0  0  0  0
  6 11  1  0  0  0  0
  8  7  1  0  0  0  0
  8  9  2  0  0  0  0
 10  9  1  0  0  0  0
 11 10  2  0  0  0  0
 12 13  2  0  0  0  0
 12 11  1  0  0  0  0
 13  8  1  0  0  0  0
 14 16  1  0  0  0  0
 15 14  1  0  0  0  0
 17 14  1  0  0  0  0
 18  3  1  0  0  0  0
 19 20  1  0  0  0  0
 19 18  1  0  0  0  0
 20 25  2  0  0  0  0
 21 22  1  6  0  0  0
 21 20  1  0  0  0  0
 21 28  1  0  0  0  0
 23 26  1  0  0  0  0
 23 21  1  0  0  0  0
 24 23  1  0  0  0  0
 26 19  1  0  0  0  0
 27 26  2  0  0  0  0
 28 29  1  0  0  0  0
 30 28  1  0  0  0  0
 30 29  1  0  0  0  0
M  END
>  <MODEL>
7

>  <REMARK>
  Name = ZINC67268336
                            x       y       z     vdW  Elec       q    Type
                         _______ _______ _______ _____ _____    ______ ____

>  <TORSDO>
F 7

>  <minimizedAffinity>
-7.8153120703874333

$$$$
ZINC67268336
 OpenBabel10211216343D

 30 32  0  0  1  0  0  0  0  0999 V2000
   49.5050   53.8600   18.7050 N   0  0  0  0  0  0  0  0  0  0  0  0
   49.2860   53.8280   17.7610 H   0  0  0  0  0  0  0  0  0  0  0  0
   50.3000   52.9120   19.2420 C   0  0  0  0  0  0  0  0  0  0  0  0
   50.5740   52.9510   20.4240 O   0  0  0  0  0  0  0  0  0  0  0  0
   48.9730   54.9340   19.5450 C   0  0  0  0  0  0  0  0  0  0  0  0
   49.5000   56.2810   19.0460 C   0  0  2  0  0  0  0  0  0  0  0  0
   54.1530   57.7840   22.1260 C   0  0  0  0  0  0  0  0  0  0  0  0
   52.9390   57.3920   21.3230 C   0  0  0  0  0  0  0  0  0  0  0  0
   51.6870   57.8430   21.6980 C   0  0  0  0  0  0  0  0  0  0  0  0
   50.5740   57.4840   20.9610 C   0  0  0  0  0  0  0  0  0  0  0  0
   50.7140   56.6740   19.8490 C   0  0  0  0  0  0  0  0  0  0  0  0
   51.9650   56.2250   19.4740 C   0  0  0  0  0  0  0  0  0  0  0  0
   53.0790   56.5870   20.2080 C   0  0  0  0  0  0  0  0  0  0  0  0
   48.4570   57.3030   19.2040 N   0  0  0  0  0  0  0  0  0  0  0  0
   48.8670   58.1470   19.5760 H   0  0  0  0  0  0  0  0  0  0  0  0
   47.4250   56.8110   20.1260 C   0  0  0  0  0  0  0  0  0  0  0  0
   47.8500   57.5880   17.8970 C   0  0  0  0  0  0  0  0  0  0  0  0
   50.8470   51.8070   18.3770 C   0  0  0  0  0  0  0  0  0  0  0  0
   49.7910   50.8270   18.1100 N   0  0  0  0  0  0  0  0  0  0  0  0
   48.9420   50.8960   17.0650 C   0  0  0  0  0  0  0  0  0  0  0  0
   48.0350   49.6880   17.1940 C   0  0  2  0  0  0  0  0  0  0  0  0
   46.5790   50.1240   17.3680 C   0  0  0  0  0  0  0  0  0  0  0  0
   48.5240   49.0170   18.4110 N   0  0  0  0  0  0  0  0  0  0  0  0
   48.1750   48.2010   18.8030 H   0  0  0  0  0  0  0  0  0  0  0  0
   48.9110   51.7460   16.2010 O   0  0  0  0  0  0  0  0  0  0  0  0
   49.5510   49.7530   18.8710 C   0  0  0  0  0  0  0  0  0  0  0  0
   50.1890   49.4760   19.8670 O   0  0  0  0  0  0  0  0  0  0  0  0
   48.1830   48.7720   15.9770 C   0  0  0  0  0  0  0  0  0  0  0  0
   46.9970   48.6790   15.0150 C   0  0  0  0  0  0  0  0  0  0  0  0
   47.3260   47.5050   15.9390 C   0  0  0  0  0  0  0  0  0  0  0  0
  1  3  1  0  0  0  0
  1  5  1  0  0  0  0
  2  1  1  0  0  0  0
  3  4  2  0  0  0  0
  6 14  1  1  0  0  0
  6  5  1  0  0  0  0
  6 11  1  0  0  0  0
  8  9  1  0  0  0  0
  8  7  1  0  0  0  0
 10  9  2  0  0  0  0
 11 10  1  0  0  0  0
 12 11  2  0  0  0  0
 12 13  1  0  0  0  0
 13  8  2  0  0  0  0
 14 15  1  0  0  0  0
 14 16  1  0  0  0  0
 17 14  1  0  0  0  0
 18  3  1  0  0  0  0
 19 18  1  0  0  0  0
 19 26  1  0  0  0  0
 20 21  1  0  0  0  0
 20 19  1  0  0  0  0
 21 28  1  6  0  0  0
 21 22  1  0  0  0  0
 21 23  1  0  0  0  0
 23 24  1  0  0  0  0
 23 26  1  0  0  0  0
 25 20  2  0  0  0  0
 26 27  2  0  0  0  0
 29 30  1  0  0  0  0
 29 28  1  0  0  0  0
 30 28  1  0  0  0  0
M  END
>  <MODEL>
8

>  <REMARK>
  Name = ZINC67268336
                            x       y       z     vdW  Elec       q    Type
                         _______ _______ _______ _____ _____    ______ ____

>  <TORSDO>
F 7

>  <minimizedAffinity>
-7.5352370091733585

$$$$
ZINC67268336
 OpenBabel10211216343D

 30 32  0  0  1  0  0  0  0  0999 V2000
   49.8190   54.1590   19.0060 N   0  0  0  0  0  0  0  0  0  0  0  0
   50.1070   55.0850   19.0210 H   0  0  0  0  0  0  0  0  0  0  0  0
   50.6190   53.1980   19.5100 C   0  0  0  0  0  0  0  0  0  0  0  0
   50.2600   52.0390   19.4910 O   0  0  0  0  0  0  0  0  0  0  0  0
   48.5170   53.8050   18.4370 C   0  0  0  0  0  0  0  0  0  0  0  0
   48.6080   53.8170   16.9100 C   0  0  2  0  0  0  0  0  0  0  0  0
   45.9710   58.5350   14.8650 C   0  0  0  0  0  0  0  0  0  0  0  0
   46.6580   57.3050   15.3980 C   0  0  0  0  0  0  0  0  0  0  0  0
   46.4030   56.0700   14.8320 C   0  0  0  0  0  0  0  0  0  0  0  0
   47.0340   54.9410   15.3210 C   0  0  0  0  0  0  0  0  0  0  0  0
   47.9210   55.0480   16.3760 C   0  0  0  0  0  0  0  0  0  0  0  0
   48.1770   56.2830   16.9410 C   0  0  0  0  0  0  0  0  0  0  0  0
   47.5500   57.4110   16.4500 C   0  0  0  0  0  0  0  0  0  0  0  0
   47.9530   52.6190   16.3710 N   0  0  0  0  0  0  0  0  0  0  0  0
   47.5140   52.8420   15.4900 H   0  0  0  0  0  0  0  0  0  0  0  0
   46.9350   52.1480   17.3200 C   0  0  0  0  0  0  0  0  0  0  0  0
   48.9540   51.5640   16.1650 C   0  0  0  0  0  0  0  0  0  0  0  0
   51.9590   53.5630   20.0960 C   0  0  0  0  0  0  0  0  0  0  0  0
   51.8520   54.8440   20.7980 N   0  0  0  0  0  0  0  0  0  0  0  0
   51.9530   56.0460   20.1980 C   0  0  0  0  0  0  0  0  0  0  0  0
   51.7810   57.0710   21.3020 C   0  0  2  0  0  0  0  0  0  0  0  0
   53.0370   57.9340   21.4370 C   0  0  0  0  0  0  0  0  0  0  0  0
   51.5850   56.2490   22.5090 N   0  0  0  0  0  0  0  0  0  0  0  0
   51.4430   56.5720   23.4130 H   0  0  0  0  0  0  0  0  0  0  0  0
   52.1410   56.2630   19.0200 O   0  0  0  0  0  0  0  0  0  0  0  0
   51.6380   54.9650   22.1140 C   0  0  0  0  0  0  0  0  0  0  0  0
   51.5090   54.0200   22.8660 O   0  0  0  0  0  0  0  0  0  0  0  0
   50.5520   57.9440   21.0390 C   0  0  0  0  0  0  0  0  0  0  0  0
   49.4520   57.9530   22.1020 C   0  0  0  0  0  0  0  0  0  0  0  0
   49.2240   57.2320   20.7720 C   0  0  0  0  0  0  0  0  0  0  0  0
  1  2  1  0  0  0  0
  1  3  1  0  0  0  0
  3 18  1  0  0  0  0
  4  3  2  0  0  0  0
  5  1  1  0  0  0  0
  6 14  1  1  0  0  0
  6  5  1  0  0  0  0
  7  8  1  0  0  0  0
  8 13  2  0  0  0  0
  9 10  2  0  0  0  0
  9  8  1  0  0  0  0
 10 11  1  0  0  0  0
 11  6  1  0  0  0  0
 11 12  2  0  0  0  0
 13 12  1  0  0  0  0
 14 16  1  0  0  0  0
 15 14  1  0  0  0  0
 17 14  1  0  0  0  0
 18 19  1  0  0  0  0
 19 26  1  0  0  0  0
 20 19  1  0  0  0  0
 20 21  1  0  0  0  0
 21 28  1  6  0  0  0
 21 22  1  0  0  0  0
 21 23  1  0  0  0  0
 23 24  1  0  0  0  0
 25 20  2  0  0  0  0
 26 23  1  0  0  0  0
 26 27  2  0  0  0  0
 28 29  1  0  0  0  0
 30 28  1  0  0  0  0
 30 29  1  0  0  0  0
M  END
>  <MODEL>
9

>  <REMARK>
  Name = ZINC67268336
                            x       y       z     vdW  Elec       q    Type
                         _______ _______ _______ _____ _____    ______ ____

>  <TORSDO>
F 7

>  <minimizedAffinity>
-7.3869859954121102

$$$$
ZINC48909649
 OpenBabel10211216353D

 23 24  0  0  1  0  0  0  0  0999 V2000
   51.5510   51.9590   20.3960 C   0  0  0  0  0  0  0  0  0  0  0  0
   51.9310   53.1900   19.6970 N   0  0  0  0  0  0  0  0  0  0  0  0
   51.9980   53.1970   18.7300 H   0  0  0  0  0  0  0  0  0  0  0  0
   52.1850   54.3120   20.3990 C   0  0  0  0  0  0  0  0  0  0  0  0
   52.5340   55.4440   19.7560 N   0  0  0  0  0  0  0  0  0  0  0  0
   52.6020   55.4520   18.7890 H   0  0  0  0  0  0  0  0  0  0  0  0
   52.1010   54.3030   21.6120 O   0  0  0  0  0  0  0  0  0  0  0  0
   52.7970   56.6030   20.4800 C   0  0  0  0  0  0  0  0  0  0  0  0
   53.9570   57.0940   20.8680 N   0  0  0  0  0  0  0  0  0  0  0  0
   54.0390   58.1690   21.5270 N   0  0  0  0  0  0  0  0  0  0  0  0
   52.9350   58.8180   21.8370 C   0  0  0  0  0  0  0  0  0  0  0  0
   51.7170   57.7470   21.0850 S   0  0  0  0  0  0  0  0  0  0  0  0
   51.3650   50.8320   19.3790 C   0  0  0  0  0  0  0  0  0  0  0  0
   52.1640   51.1500   18.1130 C   0  0  0  0  0  0  0  0  0  0  0  0
   51.8640   49.5160   19.9800 C   0  0  0  0  0  0  0  0  0  0  0  0
   47.9000   52.1020   16.1620 C   0  0  0  0  0  0  0  0  0  0  0  0
   48.1770   51.3610   17.4720 C   0  0  1  0  0  0  0  0  0  0  0  0
   47.7460   49.8980   17.3320 C   0  0  0  0  0  0  0  0  0  0  0  0
   48.0990   49.1470   18.6200 C   0  0  0  0  0  0  0  0  0  0  0  0
   49.5980   49.2880   18.8900 C   0  0  0  0  0  0  0  0  0  0  0  0
   49.9410   50.7070   19.0410 N   0  0  0  0  0  0  0  0  0  0  0  0
   49.3860   51.1090   19.7810 H   0  0  0  0  0  0  0  0  0  0  0  0
   49.6730   51.4210   17.7870 C   0  0  0  0  0  0  0  0  0  0  0  0
  2  1  1  0  0  0  0
  2  4  1  0  0  0  0
  3  2  1  0  0  0  0
  4  7  2  0  0  0  0
  5  4  1  0  0  0  0
  5  8  1  0  0  0  0
  6  5  1  0  0  0  0
  8  9  2  0  0  0  0
  8 12  1  0  0  0  0
  9 10  1  0  0  0  0
 10 11  2  0  0  0  0
 12 11  1  0  0  0  0
 13 15  1  0  0  0  0
 13  1  1  0  0  0  0
 14 13  1  0  0  0  0
 17 16  1  6  0  0  0
 17 23  1  0  0  0  0
 18 17  1  0  0  0  0
 18 19  1  0  0  0  0
 19 20  1  0  0  0  0
 20 21  1  0  0  0  0
 21 13  1  0  0  0  0
 21 22  1  0  0  0  0
 23 21  1  0  0  0  0
M  END
>  <MODEL>
1

>  <REMARK>
  Name = ZINC48909649
                            x       y       z     vdW  Elec       q    Type
                         _______ _______ _______ _____ _____    ______ ____

>  <TORSDO>
F 4

>  <minimizedAffinity>
-7.6870692399734324

$$$$
ZINC48909649
 OpenBabel10211216353D

 23 24  0  0  1  0  0  0  0  0999 V2000
   49.2400   52.0940   17.6490 C   0  0  0  0  0  0  0  0  0  0  0  0
   50.5540   52.6420   17.9980 N   0  0  0  0  0  0  0  0  0  0  0  0
   51.3440   52.3450   17.5230 H   0  0  0  0  0  0  0  0  0  0  0  0
   50.6610   53.5600   18.9780 C   0  0  0  0  0  0  0  0  0  0  0  0
   51.8700   54.0650   19.2980 N   0  0  0  0  0  0  0  0  0  0  0  0
   52.6610   53.7670   18.8240 H   0  0  0  0  0  0  0  0  0  0  0  0
   49.6700   53.9330   19.5740 O   0  0  0  0  0  0  0  0  0  0  0  0
   51.9820   55.0130   20.3110 C   0  0  0  0  0  0  0  0  0  0  0  0
   52.0790   54.8300   21.6130 N   0  0  0  0  0  0  0  0  0  0  0  0
   52.1750   55.8000   22.4170 N   0  0  0  0  0  0  0  0  0  0  0  0
   52.1790   57.0290   21.9420 C   0  0  0  0  0  0  0  0  0  0  0  0
   52.0360   56.6940   20.1920 S   0  0  0  0  0  0  0  0  0  0  0  0
   49.3420   50.5730   17.5140 C   0  0  0  0  0  0  0  0  0  0  0  0
   49.9530   50.2220   16.1560 C   0  0  0  0  0  0  0  0  0  0  0  0
   50.2280   50.0200   18.6320 C   0  0  0  0  0  0  0  0  0  0  0  0
   45.7770   48.3200   15.0270 C   0  0  0  0  0  0  0  0  0  0  0  0
   46.1810   48.8910   16.3880 C   0  0  1  0  0  0  0  0  0  0  0  0
   46.1200   47.7850   17.4450 C   0  0  0  0  0  0  0  0  0  0  0  0
   46.6010   48.3480   18.7860 C   0  0  0  0  0  0  0  0  0  0  0  0
   48.0130   48.9120   18.6180 C   0  0  0  0  0  0  0  0  0  0  0  0
   48.0000   49.9820   17.6140 N   0  0  0  0  0  0  0  0  0  0  0  0
   47.3420   50.6940   17.8910 H   0  0  0  0  0  0  0  0  0  0  0  0
   47.6090   49.4370   16.3090 C   0  0  0  0  0  0  0  0  0  0  0  0
  1  2  1  0  0  0  0
  2  4  1  0  0  0  0
  3  2  1  0  0  0  0
  4  5  1  0  0  0  0
  4  7  2  0  0  0  0
  5  8  1  0  0  0  0
  6  5  1  0  0  0  0
  8  9  2  0  0  0  0
  9 10  1  0  0  0  0
 11 10  2  0  0  0  0
 12  8  1  0  0  0  0
 12 11  1  0  0  0  0
 13 21  1  0  0  0  0
 13  1  1  0  0  0  0
 13 15  1  0  0  0  0
 14 13  1  0  0  0  0
 17 16  1  6  0  0  0
 17 18  1  0  0  0  0
 18 19  1  0  0  0  0
 20 19  1  0  0  0  0
 21 22  1  0  0  0  0
 21 20  1  0  0  0  0
 23 17  1  0  0  0  0
 23 21  1  0  0  0  0
M  END
>  <MODEL>
2

>  <REMARK>
  Name = ZINC48909649
                            x       y       z     vdW  Elec       q    Type
                         _______ _______ _______ _____ _____    ______ ____

>  <TORSDO>
F 4

>  <minimizedAffinity>
-7.4192683687813439

$$$$
ZINC48909649
 OpenBabel10211216353D

 23 24  0  0  1  0  0  0  0  0999 V2000
   50.0310   53.7330   18.5450 C   0  0  0  0  0  0  0  0  0  0  0  0
   50.5330   52.4960   17.9400 N   0  0  0  0  0  0  0  0  0  0  0  0
   51.4870   52.3710   17.8160 H   0  0  0  0  0  0  0  0  0  0  0  0
   49.6710   51.5350   17.5580 C   0  0  0  0  0  0  0  0  0  0  0  0
   50.1330   50.3970   17.0020 N   0  0  0  0  0  0  0  0  0  0  0  0
   51.0860   50.2710   16.8760 H   0  0  0  0  0  0  0  0  0  0  0  0
   48.4750   51.6920   17.7140 O   0  0  0  0  0  0  0  0  0  0  0  0
   49.2430   49.4040   16.6070 C   0  0  0  0  0  0  0  0  0  0  0  0
   48.6930   49.2030   15.4250 N   0  0  0  0  0  0  0  0  0  0  0  0
   47.8940   48.2470   15.2150 N   0  0  0  0  0  0  0  0  0  0  0  0
   47.6000   47.4270   16.2040 C   0  0  0  0  0  0  0  0  0  0  0  0
   48.5910   48.1400   17.5110 S   0  0  0  0  0  0  0  0  0  0  0  0
   50.8630   54.0700   19.7840 C   0  0  0  0  0  0  0  0  0  0  0  0
   50.4390   53.1680   20.9450 C   0  0  0  0  0  0  0  0  0  0  0  0
   52.3460   53.8450   19.4780 C   0  0  0  0  0  0  0  0  0  0  0  0
   47.4810   57.5460   20.4480 C   0  0  0  0  0  0  0  0  0  0  0  0
   48.9810   57.2480   20.4510 C   0  0  1  0  0  0  0  0  0  0  0  0
   49.5650   57.5770   21.8280 C   0  0  0  0  0  0  0  0  0  0  0  0
   51.0500   57.2010   21.8440 C   0  0  0  0  0  0  0  0  0  0  0  0
   51.1990   55.7200   21.4890 C   0  0  0  0  0  0  0  0  0  0  0  0
   50.6460   55.4750   20.1520 N   0  0  0  0  0  0  0  0  0  0  0  0
   51.1110   56.0710   19.4830 H   0  0  0  0  0  0  0  0  0  0  0  0
   49.2080   55.7650   20.1460 C   0  0  0  0  0  0  0  0  0  0  0  0
  1 13  1  0  0  0  0
  2  1  1  0  0  0  0
  3  2  1  0  0  0  0
  4  7  2  0  0  0  0
  4  2  1  0  0  0  0
  5  4  1  0  0  0  0
  6  5  1  0  0  0  0
  8  5  1  0  0  0  0
  8 12  1  0  0  0  0
  9  8  2  0  0  0  0
 10  9  1  0  0  0  0
 10 11  2  0  0  0  0
 11 12  1  0  0  0  0
 13 21  1  0  0  0  0
 13 14  1  0  0  0  0
 15 13  1  0  0  0  0
 17 16  1  1  0  0  0
 17 18  1  0  0  0  0
 18 19  1  0  0  0  0
 20 19  1  0  0  0  0
 21 20  1  0  0  0  0
 22 21  1  0  0  0  0
 23 21  1  0  0  0  0
 23 17  1  0  0  0  0
M  END
>  <MODEL>
3

>  <REMARK>
  Name = ZINC48909649
                            x       y       z     vdW  Elec       q    Type
                         _______ _______ _______ _____ _____    ______ ____

>  <TORSDO>
F 4

>  <minimizedAffinity>
-7.3852600596801397

$$$$
ZINC48909649
 OpenBabel10211216353D

 23 24  0  0  1  0  0  0  0  0999 V2000
   50.2320   52.3370   18.1060 C   0  0  0  0  0  0  0  0  0  0  0  0
   50.0180   53.0620   19.3610 N   0  0  0  0  0  0  0  0  0  0  0  0
   49.3290   52.7710   19.9770 H   0  0  0  0  0  0  0  0  0  0  0  0
   50.7800   54.1330   19.6580 C   0  0  0  0  0  0  0  0  0  0  0  0
   50.5840   54.8000   20.8130 N   0  0  0  0  0  0  0  0  0  0  0  0
   49.8940   54.5100   21.4300 H   0  0  0  0  0  0  0  0  0  0  0  0
   51.6440   54.4990   18.8850 O   0  0  0  0  0  0  0  0  0  0  0  0
   51.3700   55.9060   21.1200 C   0  0  0  0  0  0  0  0  0  0  0  0
   52.5010   55.9600   21.7940 N   0  0  0  0  0  0  0  0  0  0  0  0
   53.1070   57.0500   21.9940 N   0  0  0  0  0  0  0  0  0  0  0  0
   52.5950   58.1670   21.5170 C   0  0  0  0  0  0  0  0  0  0  0  0
   51.1270   57.5260   20.7210 S   0  0  0  0  0  0  0  0  0  0  0  0
   50.8670   50.9770   18.4040 C   0  0  0  0  0  0  0  0  0  0  0  0
   52.3070   50.9620   17.8880 C   0  0  0  0  0  0  0  0  0  0  0  0
   50.8630   50.7330   19.9150 C   0  0  0  0  0  0  0  0  0  0  0  0
   46.7460   48.3390   18.5560 C   0  0  0  0  0  0  0  0  0  0  0  0
   48.0630   48.5540   17.8090 C   0  0  1  0  0  0  0  0  0  0  0  0
   47.7710   48.8950   16.3450 C   0  0  0  0  0  0  0  0  0  0  0  0
   49.0910   49.1860   15.6250 C   0  0  0  0  0  0  0  0  0  0  0  0
   49.8220   50.3180   16.3500 C   0  0  0  0  0  0  0  0  0  0  0  0
   50.0960   49.9200   17.7360 N   0  0  0  0  0  0  0  0  0  0  0  0
   50.6310   49.0640   17.7390 H   0  0  0  0  0  0  0  0  0  0  0  0
   48.8340   49.7090   18.4540 C   0  0  0  0  0  0  0  0  0  0  0  0
  1 13  1  0  0  0  0
  1  2  1  0  0  0  0
  2  4  1  0  0  0  0
  2  3  1  0  0  0  0
  4  5  1  0  0  0  0
  5  8  1  0  0  0  0
  5  6  1  0  0  0  0
  7  4  2  0  0  0  0
  8  9  2  0  0  0  0
  9 10  1  0  0  0  0
 11 10  2  0  0  0  0
 12  8  1  0  0  0  0
 12 11  1  0  0  0  0
 13 15  1  0  0  0  0
 14 13  1  0  0  0  0
 17 23  1  0  0  0  0
 17 16  1  6  0  0  0
 18 17  1  0  0  0  0
 19 18  1  0  0  0  0
 19 20  1  0  0  0  0
 20 21  1  0  0  0  0
 21 22  1  0  0  0  0
 21 13  1  0  0  0  0
 21 23  1  0  0  0  0
M  END
>  <MODEL>
4

>  <REMARK>
  Name = ZINC48909649
                            x       y       z     vdW  Elec       q    Type
                         _______ _______ _______ _____ _____    ______ ____

>  <TORSDO>
F 4

>  <minimizedAffinity>
-7.3231336117762442

$$$$
ZINC48909649
 OpenBabel10211216353D

 23 24  0  0  1  0  0  0  0  0999 V2000
   51.6340   54.5480   22.0730 C   0  0  0  0  0  0  0  0  0  0  0  0
   52.1450   53.4420   21.2580 N   0  0  0  0  0  0  0  0  0  0  0  0
   53.1000   53.3340   21.1320 H   0  0  0  0  0  0  0  0  0  0  0  0
   51.2870   52.5750   20.6850 C   0  0  0  0  0  0  0  0  0  0  0  0
   51.7570   51.5580   19.9360 N   0  0  0  0  0  0  0  0  0  0  0  0
   52.7130   51.4510   19.8090 H   0  0  0  0  0  0  0  0  0  0  0  0
   50.0890   52.7100   20.8430 O   0  0  0  0  0  0  0  0  0  0  0  0
   50.8720   50.6630   19.3440 C   0  0  0  0  0  0  0  0  0  0  0  0
   50.4570   49.4920   19.7830 N   0  0  0  0  0  0  0  0  0  0  0  0
   49.6410   48.7840   19.1270 N   0  0  0  0  0  0  0  0  0  0  0  0
   49.1920   49.2280   17.9700 C   0  0  0  0  0  0  0  0  0  0  0  0
   50.0460   50.7970   17.8800 S   0  0  0  0  0  0  0  0  0  0  0  0
   51.5090   55.8040   21.2090 C   0  0  0  0  0  0  0  0  0  0  0  0
   51.6220   57.0460   22.0940 C   0  0  0  0  0  0  0  0  0  0  0  0
   52.6280   55.8170   20.1650 C   0  0  0  0  0  0  0  0  0  0  0  0
   47.2520   58.1750   20.7380 C   0  0  0  0  0  0  0  0  0  0  0  0
   48.0500   56.9440   20.3050 C   0  0  1  0  0  0  0  0  0  0  0  0
   48.1970   56.9410   18.7800 C   0  0  0  0  0  0  0  0  0  0  0  0
   49.0630   55.7480   18.3630 C   0  0  0  0  0  0  0  0  0  0  0  0
   50.4130   55.8320   19.0770 C   0  0  0  0  0  0  0  0  0  0  0  0
   50.2060   55.8030   20.5290 N   0  0  0  0  0  0  0  0  0  0  0  0
   49.7000   54.9670   20.7790 H   0  0  0  0  0  0  0  0  0  0  0  0
   49.4380   56.9820   20.9470 C   0  0  0  0  0  0  0  0  0  0  0  0
  2  1  1  0  0  0  0
  3  2  1  0  0  0  0
  4  7  2  0  0  0  0
  4  2  1  0  0  0  0
  5  4  1  0  0  0  0
  6  5  1  0  0  0  0
  8  9  2  0  0  0  0
  8  5  1  0  0  0  0
 10  9  1  0  0  0  0
 11 10  2  0  0  0  0
 12 11  1  0  0  0  0
 12  8  1  0  0  0  0
 13  1  1  0  0  0  0
 13 14  1  0  0  0  0
 15 13  1  0  0  0  0
 17 16  1  6  0  0  0
 17 23  1  0  0  0  0
 18 17  1  0  0  0  0
 19 18  1  0  0  0  0
 19 20  1  0  0  0  0
 20 21  1  0  0  0  0
 21 22  1  0  0  0  0
 21 23  1  0  0  0  0
 21 13  1  0  0  0  0
M  END
>  <MODEL>
5

>  <REMARK>
  Name = ZINC48909649
                            x       y       z     vdW  Elec       q    Type
                         _______ _______ _______ _____ _____    ______ ____

>  <TORSDO>
F 4

>  <minimizedAffinity>
-7.2036108755327977

$$$$
ZINC48909649
 OpenBabel10211216353D

 23 24  0  0  1  0  0  0  0  0999 V2000
   50.3610   49.6200   20.2160 C   0  0  0  0  0  0  0  0  0  0  0  0
   50.3050   48.7950   19.0060 N   0  0  0  0  0  0  0  0  0  0  0  0
   51.1120   48.3830   18.6630 H   0  0  0  0  0  0  0  0  0  0  0  0
   49.1310   48.6090   18.3730 C   0  0  0  0  0  0  0  0  0  0  0  0
   49.0790   47.8490   17.2600 N   0  0  0  0  0  0  0  0  0  0  0  0
   49.8860   47.4370   16.9160 H   0  0  0  0  0  0  0  0  0  0  0  0
   48.1180   49.1260   18.8030 O   0  0  0  0  0  0  0  0  0  0  0  0
   47.8670   47.6570   16.6050 C   0  0  0  0  0  0  0  0  0  0  0  0
   46.9470   46.7350   16.8130 N   0  0  0  0  0  0  0  0  0  0  0  0
   45.8850   46.6880   16.1300 N   0  0  0  0  0  0  0  0  0  0  0  0
   45.6890   47.5830   15.1830 C   0  0  0  0  0  0  0  0  0  0  0  0
   47.1870   48.5460   15.3440 S   0  0  0  0  0  0  0  0  0  0  0  0
   51.1290   50.9100   19.9190 C   0  0  0  0  0  0  0  0  0  0  0  0
   51.9650   51.2990   21.1390 C   0  0  0  0  0  0  0  0  0  0  0  0
   52.0500   50.6890   18.7170 C   0  0  0  0  0  0  0  0  0  0  0  0
   49.9700   55.5820   20.8080 C   0  0  0  0  0  0  0  0  0  0  0  0
   49.5470   54.3100   20.0720 C   0  0  1  0  0  0  0  0  0  0  0  0
   49.4630   54.5920   18.5690 C   0  0  0  0  0  0  0  0  0  0  0  0
   49.1150   53.2940   17.8340 C   0  0  0  0  0  0  0  0  0  0  0  0
   50.1640   52.2310   18.1670 C   0  0  0  0  0  0  0  0  0  0  0  0
   50.1770   51.9870   19.6140 N   0  0  0  0  0  0  0  0  0  0  0  0
   49.2540   51.7120   19.9160 H   0  0  0  0  0  0  0  0  0  0  0  0
   50.5790   53.2080   20.3220 C   0  0  0  0  0  0  0  0  0  0  0  0
  2  1  1  0  0  0  0
  3  2  1  0  0  0  0
  4  7  2  0  0  0  0
  4  2  1  0  0  0  0
  5  4  1  0  0  0  0
  6  5  1  0  0  0  0
  8  9  2  0  0  0  0
  8  5  1  0  0  0  0
 10  9  1  0  0  0  0
 11 12  1  0  0  0  0
 11 10  2  0  0  0  0
 12  8  1  0  0  0  0
 13  1  1  0  0  0  0
 13 14  1  0  0  0  0
 15 13  1  0  0  0  0
 17 23  1  0  0  0  0
 17 16  1  6  0  0  0
 18 17  1  0  0  0  0
 19 20  1  0  0  0  0
 19 18  1  0  0  0  0
 20 21  1  0  0  0  0
 21 22  1  0  0  0  0
 21 13  1  0  0  0  0
 21 23  1  0  0  0  0
M  END
>  <MODEL>
6

>  <REMARK>
  Name = ZINC48909649
                            x       y       z     vdW  Elec       q    Type
                         _______ _______ _______ _____ _____    ______ ____

>  <TORSDO>
F 4

>  <minimizedAffinity>
-7.1164818714748161

$$$$
ZINC48909649
 OpenBabel10211216353D

 23 24  0  0  1  0  0  0  0  0999 V2000
   48.3250   49.3740   16.1530 C   0  0  0  0  0  0  0  0  0  0  0  0
   49.6990   49.4160   16.6590 N   0  0  0  0  0  0  0  0  0  0  0  0
   50.2730   48.6400   16.5690 H   0  0  0  0  0  0  0  0  0  0  0  0
   50.1650   50.5340   17.2490 C   0  0  0  0  0  0  0  0  0  0  0  0
   51.4300   50.5730   17.7150 N   0  0  0  0  0  0  0  0  0  0  0  0
   52.0040   49.7960   17.6260 H   0  0  0  0  0  0  0  0  0  0  0  0
   49.4460   51.5080   17.3630 O   0  0  0  0  0  0  0  0  0  0  0  0
   51.9120   51.7270   18.3250 C   0  0  0  0  0  0  0  0  0  0  0  0
   52.8760   52.5350   17.9300 N   0  0  0  0  0  0  0  0  0  0  0  0
   53.2050   53.5560   18.5970 N   0  0  0  0  0  0  0  0  0  0  0  0
   52.5670   53.8230   19.7200 C   0  0  0  0  0  0  0  0  0  0  0  0
   51.4100   52.4600   19.7580 S   0  0  0  0  0  0  0  0  0  0  0  0
   47.5850   48.1910   16.7810 C   0  0  0  0  0  0  0  0  0  0  0  0
   48.5140   46.9760   16.8270 C   0  0  0  0  0  0  0  0  0  0  0  0
   47.1520   48.5580   18.2030 C   0  0  0  0  0  0  0  0  0  0  0  0
   45.6430   48.3720   12.2910 C   0  0  0  0  0  0  0  0  0  0  0  0
   45.3840   47.9870   13.7490 C   0  0  1  0  0  0  0  0  0  0  0  0
   45.0200   46.5010   13.8280 C   0  0  0  0  0  0  0  0  0  0  0  0
   44.8390   46.1080   15.2980 C   0  0  0  0  0  0  0  0  0  0  0  0
   46.1210   46.4330   16.0680 C   0  0  0  0  0  0  0  0  0  0  0  0
   46.3990   47.8710   15.9750 N   0  0  0  0  0  0  0  0  0  0  0  0
   45.6080   48.3890   16.3270 H   0  0  0  0  0  0  0  0  0  0  0  0
   46.6440   48.2440   14.5770 C   0  0  0  0  0  0  0  0  0  0  0  0
  1  2  1  0  0  0  0
  1 13  1  0  0  0  0
  2  4  1  0  0  0  0
  3  2  1  0  0  0  0
  4  7  2  0  0  0  0
  4  5  1  0  0  0  0
  5  8  1  0  0  0  0
  6  5  1  0  0  0  0
  8 12  1  0  0  0  0
  9  8  2  0  0  0  0
  9 10  1  0  0  0  0
 10 11  2  0  0  0  0
 11 12  1  0  0  0  0
 13 14  1  0  0  0  0
 13 15  1  0  0  0  0
 17 16  1  6  0  0  0
 17 18  1  0  0  0  0
 17 23  1  0  0  0  0
 18 19  1  0  0  0  0
 19 20  1  0  0  0  0
 21 20  1  0  0  0  0
 21 22  1  0  0  0  0
 21 13  1  0  0  0  0
 23 21  1  0  0  0  0
M  END
>  <MODEL>
7

>  <REMARK>
  Name = ZINC48909649
                            x       y       z     vdW  Elec       q    Type
                         _______ _______ _______ _____ _____    ______ ____

>  <TORSDO>
F 4

>  <minimizedAffinity>
-6.9446365791110569

$$$$
ZINC48909649
 OpenBabel10211216353D

 23 24  0  0  1  0  0  0  0  0999 V2000
   47.9010   58.4080   19.0710 C   0  0  0  0  0  0  0  0  0  0  0  0
   47.8680   59.7690   19.6130 N   0  0  0  0  0  0  0  0  0  0  0  0
   48.5110   60.0380   20.2870 H   0  0  0  0  0  0  0  0  0  0  0  0
   46.9450   60.6470   19.1740 C   0  0  0  0  0  0  0  0  0  0  0  0
   46.9150   61.8990   19.6730 N   0  0  0  0  0  0  0  0  0  0  0  0
   47.5580   62.1680   20.3480 H   0  0  0  0  0  0  0  0  0  0  0  0
   46.1380   60.3100   18.3290 O   0  0  0  0  0  0  0  0  0  0  0  0
   45.9610   62.8060   19.2210 C   0  0  0  0  0  0  0  0  0  0  0  0
   44.8360   63.1830   19.7940 N   0  0  0  0  0  0  0  0  0  0  0  0
   44.0630   64.0250   19.2560 N   0  0  0  0  0  0  0  0  0  0  0  0
   44.3900   64.5420   18.0890 C   0  0  0  0  0  0  0  0  0  0  0  0
   45.9470   63.7130   17.8000 S   0  0  0  0  0  0  0  0  0  0  0  0
   48.5550   57.4700   20.0870 C   0  0  0  0  0  0  0  0  0  0  0  0
   48.3570   58.0280   21.4970 C   0  0  0  0  0  0  0  0  0  0  0  0
   47.9100   56.0850   19.9910 C   0  0  0  0  0  0  0  0  0  0  0  0
   53.0500   58.2540   21.8610 C   0  0  0  0  0  0  0  0  0  0  0  0
   52.2530   57.7820   20.6430 C   0  0  1  0  0  0  0  0  0  0  0  0
   52.6610   56.3490   20.2890 C   0  0  0  0  0  0  0  0  0  0  0  0
   51.8030   55.8590   19.1180 C   0  0  0  0  0  0  0  0  0  0  0  0
   50.3250   55.9640   19.4980 C   0  0  0  0  0  0  0  0  0  0  0  0
   49.9920   57.3620   19.7990 N   0  0  0  0  0  0  0  0  0  0  0  0
   50.2170   57.9390   19.0030 H   0  0  0  0  0  0  0  0  0  0  0  0
   50.7580   57.8180   20.9650 C   0  0  0  0  0  0  0  0  0  0  0  0
  1  2  1  0  0  0  0
  1 13  1  0  0  0  0
  2  3  1  0  0  0  0
  4  2  1  0  0  0  0
  4  5  1  0  0  0  0
  5  6  1  0  0  0  0
  7  4  2  0  0  0  0
  8  5  1  0  0  0  0
  8  9  2  0  0  0  0
 10  9  1  0  0  0  0
 11 10  2  0  0  0  0
 12 11  1  0  0  0  0
 12  8  1  0  0  0  0
 13 14  1  0  0  0  0
 15 13  1  0  0  0  0
 17 23  1  0  0  0  0
 17 16  1  1  0  0  0
 18 17  1  0  0  0  0
 19 20  1  0  0  0  0
 19 18  1  0  0  0  0
 20 21  1  0  0  0  0
 21 13  1  0  0  0  0
 21 23  1  0  0  0  0
 22 21  1  0  0  0  0
M  END
>  <MODEL>
8

>  <REMARK>
  Name = ZINC48909649
                            x       y       z     vdW  Elec       q    Type
                         _______ _______ _______ _____ _____    ______ ____

>  <TORSDO>
F 4

>  <minimizedAffinity>
-6.8021053602729138

$$$$
ZINC48909649
 OpenBabel10211216353D

 23 24  0  0  1  0  0  0  0  0999 V2000
   50.8040   51.5230   20.2650 C   0  0  0  0  0  0  0  0  0  0  0  0
   51.0790   50.9360   18.9500 N   0  0  0  0  0  0  0  0  0  0  0  0
   51.9880   50.9040   18.6140 H   0  0  0  0  0  0  0  0  0  0  0  0
   50.0680   50.4400   18.2100 C   0  0  0  0  0  0  0  0  0  0  0  0
   50.3210   49.8990   17.0010 N   0  0  0  0  0  0  0  0  0  0  0  0
   51.2300   49.8680   16.6640 H   0  0  0  0  0  0  0  0  0  0  0  0
   48.9280   50.4800   18.6300 O   0  0  0  0  0  0  0  0  0  0  0  0
   49.2780   49.3880   16.2350 C   0  0  0  0  0  0  0  0  0  0  0  0
   48.7540   48.1780   16.2490 N   0  0  0  0  0  0  0  0  0  0  0  0
   47.7980   47.8580   15.4870 N   0  0  0  0  0  0  0  0  0  0  0  0
   47.3110   48.7560   14.6540 C   0  0  0  0  0  0  0  0  0  0  0  0
   48.3510   50.1540   15.0540 S   0  0  0  0  0  0  0  0  0  0  0  0
   51.2000   53.0010   20.2560 C   0  0  0  0  0  0  0  0  0  0  0  0
   51.7090   53.4000   21.6420 C   0  0  0  0  0  0  0  0  0  0  0  0
   52.3050   53.2260   19.2220 C   0  0  0  0  0  0  0  0  0  0  0  0
   48.8630   57.2070   21.1570 C   0  0  0  0  0  0  0  0  0  0  0  0
   48.8150   55.8960   20.3690 C   0  0  1  0  0  0  0  0  0  0  0  0
   48.7540   56.2030   18.8700 C   0  0  0  0  0  0  0  0  0  0  0  0
   48.7860   54.8860   18.0880 C   0  0  0  0  0  0  0  0  0  0  0  0
   50.0440   54.1040   18.4690 C   0  0  0  0  0  0  0  0  0  0  0  0
   50.0300   53.8190   19.9090 N   0  0  0  0  0  0  0  0  0  0  0  0
   49.1880   53.3140   20.1420 H   0  0  0  0  0  0  0  0  0  0  0  0
   50.0720   55.0750   20.6670 C   0  0  0  0  0  0  0  0  0  0  0  0
  2  1  1  0  0  0  0
  3  2  1  0  0  0  0
  4  7  2  0  0  0  0
  4  2  1  0  0  0  0
  5  4  1  0  0  0  0
  6  5  1  0  0  0  0
  8  9  2  0  0  0  0
  8  5  1  0  0  0  0
 10  9  1  0  0  0  0
 11 12  1  0  0  0  0
 11 10  2  0  0  0  0
 12  8  1  0  0  0  0
 13  1  1  0  0  0  0
 13 14  1  0  0  0  0
 15 13  1  0  0  0  0
 17 23  1  0  0  0  0
 17 16  1  6  0  0  0
 18 17  1  0  0  0  0
 19 20  1  0  0  0  0
 19 18  1  0  0  0  0
 20 21  1  0  0  0  0
 21 22  1  0  0  0  0
 21 13  1  0  0  0  0
 21 23  1  0  0  0  0
M  END
>  <MODEL>
9

>  <REMARK>
  Name = ZINC48909649
                            x       y       z     vdW  Elec       q    Type
                         _______ _______ _______ _____ _____    ______ ____

>  <TORSDO>
F 4

>  <minimizedAffinity>
-6.779415188487933

$$$$
ZINC39974894
 OpenBabel10211216363D

 24 25  0  0  0  0  0  0  0  0999 V2000
   51.8290   54.5160   20.0890 N   0  0  0  0  0  0  0  0  0  0  0  0
   52.6430   54.8650   19.6940 H   0  0  0  0  0  0  0  0  0  0  0  0
   47.3160   57.8940   20.7290 C   0  0  0  0  0  0  0  0  0  0  0  0
   48.5150   56.9970   20.5590 C   0  0  0  0  0  0  0  0  0  0  0  0
   48.3960   55.8100   19.8570 C   0  0  0  0  0  0  0  0  0  0  0  0
   49.4920   54.9870   19.7000 C   0  0  0  0  0  0  0  0  0  0  0  0
   50.7160   55.3490   20.2470 C   0  0  0  0  0  0  0  0  0  0  0  0
   50.8340   56.5410   20.9500 C   0  0  0  0  0  0  0  0  0  0  0  0
   49.7330   57.3630   21.1000 C   0  0  0  0  0  0  0  0  0  0  0  0
   52.1350   56.9310   21.5350 N   0  0  0  0  0  0  0  0  0  0  0  0
   52.6990   57.9260   21.1440 O   0  0  0  0  0  0  0  0  0  0  0  0
   52.6360   56.2540   22.4030 O   0  0  0  0  0  0  0  0  0  0  0  0
   51.7690   53.2300   20.4870 C   0  0  0  0  0  0  0  0  0  0  0  0
   51.4860   52.8550   22.1330 S   0  0  0  0  0  0  0  0  0  0  0  0
   51.9330   52.2380   19.5890 N   0  0  0  0  0  0  0  0  0  0  0  0
   52.7740   52.1490   19.1130 H   0  0  0  0  0  0  0  0  0  0  0  0
   50.9160   51.3590   19.3500 N   0  0  0  0  0  0  0  0  0  0  0  0
   51.3190   49.9840   19.6800 C   0  0  0  0  0  0  0  0  0  0  0  0
   50.1350   49.0410   19.4560 C   0  0  0  0  0  0  0  0  0  0  0  0
   49.7060   49.1200   18.0540 N   0  0  0  0  0  0  0  0  0  0  0  0
   50.4740   48.8620   17.4510 H   0  0  0  0  0  0  0  0  0  0  0  0
   48.5810   48.2000   17.8340 C   0  0  0  0  0  0  0  0  0  0  0  0
   49.2830   50.4920   17.7460 C   0  0  0  0  0  0  0  0  0  0  0  0
   50.4590   51.4480   17.9560 C   0  0  0  0  0  0  0  0  0  0  0  0
  1  7  1  0  0  0  0
  1 13  1  0  0  0  0
  2  1  1  0  0  0  0
  4  3  1  0  0  0  0
  4  9  2  0  0  0  0
  5  4  1  0  0  0  0
  6  5  2  0  0  0  0
  6  7  1  0  0  0  0
  7  8  2  0  0  0  0
  8  9  1  0  0  0  0
  8 10  1  0  0  0  0
 10 12  2  0  0  0  0
 11 10  2  0  0  0  0
 13 14  2  0  0  0  0
 15 13  1  0  0  0  0
 16 15  1  0  0  0  0
 17 15  1  0  0  0  0
 17 18  1  0  0  0  0
 19 18  1  0  0  0  0
 20 19  1  0  0  0  0
 21 20  1  0  0  0  0
 22 20  1  0  0  0  0
 23 24  1  0  0  0  0
 23 20  1  0  0  0  0
 24 17  1  0  0  0  0
M  END
>  <MODEL>
1

>  <REMARK>
  Name = ZINC39974894
                            x       y       z     vdW  Elec       q    Type
                         _______ _______ _______ _____ _____    ______ ____

>  <TORSDO>
F 5

>  <minimizedAffinity>
-7.631449940849576

$$$$
ZINC39974894
 OpenBabel10211216363D

 24 25  0  0  0  0  0  0  0  0999 V2000
   50.1570   49.9570   17.8800 N   0  0  0  0  0  0  0  0  0  0  0  0
   50.7250   49.7150   17.1320 H   0  0  0  0  0  0  0  0  0  0  0  0
   44.6740   48.4980   17.8620 C   0  0  0  0  0  0  0  0  0  0  0  0
   46.1310   48.8860   17.8670 C   0  0  0  0  0  0  0  0  0  0  0  0
   46.9840   48.3530   18.8160 C   0  0  0  0  0  0  0  0  0  0  0  0
   48.3180   48.7060   18.8230 C   0  0  0  0  0  0  0  0  0  0  0  0
   48.8050   49.5980   17.8750 C   0  0  0  0  0  0  0  0  0  0  0  0
   47.9460   50.1310   16.9230 C   0  0  0  0  0  0  0  0  0  0  0  0
   46.6120   49.7690   16.9190 C   0  0  0  0  0  0  0  0  0  0  0  0
   48.4590   51.0810   15.9110 N   0  0  0  0  0  0  0  0  0  0  0  0
   48.8270   52.1820   16.2480 O   0  0  0  0  0  0  0  0  0  0  0  0
   48.5090   50.7560   14.7480 O   0  0  0  0  0  0  0  0  0  0  0  0
   50.6680   50.6410   18.9220 C   0  0  0  0  0  0  0  0  0  0  0  0
   51.9750   49.9880   19.8160 S   0  0  0  0  0  0  0  0  0  0  0  0
   50.1520   51.8390   19.2610 N   0  0  0  0  0  0  0  0  0  0  0  0
   49.2020   52.0040   19.1580 H   0  0  0  0  0  0  0  0  0  0  0  0
   50.9670   52.8200   19.7510 N   0  0  0  0  0  0  0  0  0  0  0  0
   50.4980   53.2880   21.0630 C   0  0  0  0  0  0  0  0  0  0  0  0
   51.4690   54.3410   21.6030 C   0  0  0  0  0  0  0  0  0  0  0  0
   51.5450   55.4650   20.6610 N   0  0  0  0  0  0  0  0  0  0  0  0
   50.6270   55.8680   20.5420 H   0  0  0  0  0  0  0  0  0  0  0  0
   52.4630   56.4840   21.1870 C   0  0  0  0  0  0  0  0  0  0  0  0
   52.0380   54.9860   19.3630 C   0  0  0  0  0  0  0  0  0  0  0  0
   51.0730   53.9380   18.8040 C   0  0  0  0  0  0  0  0  0  0  0  0
  1 13  1  0  0  0  0
  2  1  1  0  0  0  0
  3  4  1  0  0  0  0
  4  5  2  0  0  0  0
  5  6  1  0  0  0  0
  7  1  1  0  0  0  0
  7  6  2  0  0  0  0
  8  7  1  0  0  0  0
  9  8  2  0  0  0  0
  9  4  1  0  0  0  0
 10 11  2  0  0  0  0
 10  8  1  0  0  0  0
 12 10  2  0  0  0  0
 13 15  1  0  0  0  0
 13 14  2  0  0  0  0
 15 17  1  0  0  0  0
 16 15  1  0  0  0  0
 17 18  1  0  0  0  0
 18 19  1  0  0  0  0
 20 22  1  0  0  0  0
 20 19  1  0  0  0  0
 21 20  1  0  0  0  0
 23 20  1  0  0  0  0
 24 23  1  0  0  0  0
 24 17  1  0  0  0  0
M  END
>  <MODEL>
2

>  <REMARK>
  Name = ZINC39974894
                            x       y       z     vdW  Elec       q    Type
                         _______ _______ _______ _____ _____    ______ ____

>  <TORSDO>
F 5

>  <minimizedAffinity>
-7.3335686612623689

$$$$
ZINC39974894
 OpenBabel10211216363D

 24 25  0  0  0  0  0  0  0  0999 V2000
   50.6750   52.5480   17.9400 N   0  0  0  0  0  0  0  0  0  0  0  0
   51.1320   52.9130   17.1660 H   0  0  0  0  0  0  0  0  0  0  0  0
   45.9080   49.5480   17.2640 C   0  0  0  0  0  0  0  0  0  0  0  0
   47.1750   50.3450   17.4440 C   0  0  0  0  0  0  0  0  0  0  0  0
   48.3330   49.7160   17.8640 C   0  0  0  0  0  0  0  0  0  0  0  0
   49.4940   50.4430   18.0290 C   0  0  0  0  0  0  0  0  0  0  0  0
   49.5000   51.8080   17.7740 C   0  0  0  0  0  0  0  0  0  0  0  0
   48.3360   52.4380   17.3520 C   0  0  0  0  0  0  0  0  0  0  0  0
   47.1780   51.7020   17.1840 C   0  0  0  0  0  0  0  0  0  0  0  0
   48.3370   53.8920   17.0790 N   0  0  0  0  0  0  0  0  0  0  0  0
   47.9730   54.3050   16.0020 O   0  0  0  0  0  0  0  0  0  0  0  0
   48.7020   54.6670   17.9320 O   0  0  0  0  0  0  0  0  0  0  0  0
   51.1720   52.7540   19.1760 C   0  0  0  0  0  0  0  0  0  0  0  0
   52.4400   51.7660   19.7640 S   0  0  0  0  0  0  0  0  0  0  0  0
   50.6710   53.7380   19.9480 N   0  0  0  0  0  0  0  0  0  0  0  0
   49.7200   53.7700   20.1370 H   0  0  0  0  0  0  0  0  0  0  0  0
   51.5020   54.6900   20.4670 N   0  0  0  0  0  0  0  0  0  0  0  0
   50.9120   55.3110   21.6620 C   0  0  0  0  0  0  0  0  0  0  0  0
   51.8970   56.3250   22.2450 C   0  0  0  0  0  0  0  0  0  0  0  0
   52.1990   57.3500   21.2380 N   0  0  0  0  0  0  0  0  0  0  0  0
   51.3450   57.8150   20.9630 H   0  0  0  0  0  0  0  0  0  0  0  0
   53.1310   58.3340   21.8040 C   0  0  0  0  0  0  0  0  0  0  0  0
   52.8110   56.7180   20.0610 C   0  0  0  0  0  0  0  0  0  0  0  0
   51.8330   55.7060   19.4590 C   0  0  0  0  0  0  0  0  0  0  0  0
  1 13  1  0  0  0  0
  2  1  1  0  0  0  0
  3  4  1  0  0  0  0
  4  5  2  0  0  0  0
  5  6  1  0  0  0  0
  7  1  1  0  0  0  0
  7  6  2  0  0  0  0
  8  7  1  0  0  0  0
  9  8  2  0  0  0  0
  9  4  1  0  0  0  0
 10  8  1  0  0  0  0
 10 12  2  0  0  0  0
 11 10  2  0  0  0  0
 13 14  2  0  0  0  0
 13 15  1  0  0  0  0
 15 16  1  0  0  0  0
 15 17  1  0  0  0  0
 17 18  1  0  0  0  0
 18 19  1  0  0  0  0
 20 22  1  0  0  0  0
 20 19  1  0  0  0  0
 21 20  1  0  0  0  0
 23 20  1  0  0  0  0
 24 23  1  0  0  0  0
 24 17  1  0  0  0  0
M  END
>  <MODEL>
3

>  <REMARK>
  Name = ZINC39974894
                            x       y       z     vdW  Elec       q    Type
                         _______ _______ _______ _____ _____    ______ ____

>  <TORSDO>
F 5

>  <minimizedAffinity>
-7.3093558734325859

$$$$
ZINC39974894
 OpenBabel10211216363D

 24 25  0  0  0  0  0  0  0  0999 V2000
   51.1560   53.9970   19.7480 N   0  0  0  0  0  0  0  0  0  0  0  0
   51.8780   54.1450   19.1180 H   0  0  0  0  0  0  0  0  0  0  0  0
   47.6540   58.2550   21.0890 C   0  0  0  0  0  0  0  0  0  0  0  0
   48.5840   57.1240   20.7330 C   0  0  0  0  0  0  0  0  0  0  0  0
   48.1400   56.0940   19.9240 C   0  0  0  0  0  0  0  0  0  0  0  0
   48.9900   55.0570   19.5960 C   0  0  0  0  0  0  0  0  0  0  0  0
   50.2920   55.0470   20.0790 C   0  0  0  0  0  0  0  0  0  0  0  0
   50.7360   56.0830   20.8910 C   0  0  0  0  0  0  0  0  0  0  0  0
   49.8810   57.1210   21.2110 C   0  0  0  0  0  0  0  0  0  0  0  0
   52.1220   56.0780   21.4080 N   0  0  0  0  0  0  0  0  0  0  0  0
   52.3240   55.9510   22.5930 O   0  0  0  0  0  0  0  0  0  0  0  0
   53.0520   56.2020   20.6460 O   0  0  0  0  0  0  0  0  0  0  0  0
   50.9840   52.7830   20.3060 C   0  0  0  0  0  0  0  0  0  0  0  0
   51.6620   52.4410   21.8400 S   0  0  0  0  0  0  0  0  0  0  0  0
   50.2780   51.8360   19.6550 N   0  0  0  0  0  0  0  0  0  0  0  0
   49.6230   51.3050   20.1350 H   0  0  0  0  0  0  0  0  0  0  0  0
   50.4840   51.6270   18.3220 N   0  0  0  0  0  0  0  0  0  0  0  0
   49.3280   50.9600   17.7070 C   0  0  0  0  0  0  0  0  0  0  0  0
   49.5730   50.7980   16.2060 C   0  0  0  0  0  0  0  0  0  0  0  0
   50.7890   50.0040   15.9920 N   0  0  0  0  0  0  0  0  0  0  0  0
   50.6810   49.0970   16.4250 H   0  0  0  0  0  0  0  0  0  0  0  0
   51.0150   49.8330   14.5500 C   0  0  0  0  0  0  0  0  0  0  0  0
   51.9400   50.6950   16.5890 C   0  0  0  0  0  0  0  0  0  0  0  0
   51.7140   50.8560   18.0930 C   0  0  0  0  0  0  0  0  0  0  0  0
  1  7  1  0  0  0  0
  1 13  1  0  0  0  0
  2  1  1  0  0  0  0
  4  3  1  0  0  0  0
  4  9  2  0  0  0  0
  5  4  1  0  0  0  0
  6  5  2  0  0  0  0
  6  7  1  0  0  0  0
  7  8  2  0  0  0  0
  8  9  1  0  0  0  0
  8 10  1  0  0  0  0
 10 11  2  0  0  0  0
 12 10  2  0  0  0  0
 13 14  2  0  0  0  0
 15 16  1  0  0  0  0
 15 13  1  0  0  0  0
 17 15  1  0  0  0  0
 18 17  1  0  0  0  0
 19 18  1  0  0  0  0
 20 19  1  0  0  0  0
 20 21  1  0  0  0  0
 20 23  1  0  0  0  0
 22 20  1  0  0  0  0
 23 24  1  0  0  0  0
 24 17  1  0  0  0  0
M  END
>  <MODEL>
4

>  <REMARK>
  Name = ZINC39974894
                            x       y       z     vdW  Elec       q    Type
                         _______ _______ _______ _____ _____    ______ ____

>  <TORSDO>
F 5

>  <minimizedAffinity>
-7.1802646355762212

$$$$
ZINC39974894
 OpenBabel10211216363D

 24 25  0  0  0  0  0  0  0  0999 V2000
   50.0350   52.1670   17.7190 N   0  0  0  0  0  0  0  0  0  0  0  0
   50.7290   52.1060   17.0450 H   0  0  0  0  0  0  0  0  0  0  0  0
   46.3370   47.9140   18.3720 C   0  0  0  0  0  0  0  0  0  0  0  0
   47.3190   49.0440   18.1980 C   0  0  0  0  0  0  0  0  0  0  0  0
   47.0160   50.1000   17.3580 C   0  0  0  0  0  0  0  0  0  0  0  0
   47.9130   51.1360   17.1980 C   0  0  0  0  0  0  0  0  0  0  0  0
   49.1230   51.1180   17.8800 C   0  0  0  0  0  0  0  0  0  0  0  0
   49.4250   50.0570   18.7230 C   0  0  0  0  0  0  0  0  0  0  0  0
   48.5200   49.0260   18.8830 C   0  0  0  0  0  0  0  0  0  0  0  0
   50.7130   50.0330   19.4520 N   0  0  0  0  0  0  0  0  0  0  0  0
   50.7340   49.7790   20.6340 O   0  0  0  0  0  0  0  0  0  0  0  0
   51.7440   50.2700   18.8660 O   0  0  0  0  0  0  0  0  0  0  0  0
   49.9470   53.2620   18.4990 C   0  0  0  0  0  0  0  0  0  0  0  0
   48.8070   54.4860   18.1320 S   0  0  0  0  0  0  0  0  0  0  0  0
   50.7560   53.3940   19.5690 N   0  0  0  0  0  0  0  0  0  0  0  0
   51.1470   52.6080   19.9810 H   0  0  0  0  0  0  0  0  0  0  0  0
   51.0260   54.6350   20.0720 N   0  0  0  0  0  0  0  0  0  0  0  0
   52.1370   55.2670   19.3480 C   0  0  0  0  0  0  0  0  0  0  0  0
   52.3680   56.6750   19.9010 C   0  0  0  0  0  0  0  0  0  0  0  0
   52.6780   56.5930   21.3340 N   0  0  0  0  0  0  0  0  0  0  0  0
   53.5050   56.0290   21.4680 H   0  0  0  0  0  0  0  0  0  0  0  0
   52.9180   57.9430   21.8610 C   0  0  0  0  0  0  0  0  0  0  0  0
   51.5490   55.9820   22.0470 C   0  0  0  0  0  0  0  0  0  0  0  0
   51.3110   54.5690   21.5120 C   0  0  0  0  0  0  0  0  0  0  0  0
  1  7  1  0  0  0  0
  1 13  1  0  0  0  0
  2  1  1  0  0  0  0
  4  3  1  0  0  0  0
  4  9  2  0  0  0  0
  5  4  1  0  0  0  0
  6  5  2  0  0  0  0
  6  7  1  0  0  0  0
  7  8  2  0  0  0  0
  8  9  1  0  0  0  0
  8 10  1  0  0  0  0
 10 11  2  0  0  0  0
 12 10  2  0  0  0  0
 13 15  1  0  0  0  0
 14 13  2  0  0  0  0
 15 16  1  0  0  0  0
 15 17  1  0  0  0  0
 17 24  1  0  0  0  0
 18 19  1  0  0  0  0
 18 17  1  0  0  0  0
 19 20  1  0  0  0  0
 20 21  1  0  0  0  0
 20 22  1  0  0  0  0
 20 23  1  0  0  0  0
 24 23  1  0  0  0  0
M  END
>  <MODEL>
5

>  <REMARK>
  Name = ZINC39974894
                            x       y       z     vdW  Elec       q    Type
                         _______ _______ _______ _____ _____    ______ ____

>  <TORSDO>
F 5

>  <minimizedAffinity>
-7.1330864975187946

$$$$
ZINC39974894
 OpenBabel10211216363D

 24 25  0  0  0  0  0  0  0  0999 V2000
   51.1790   51.8710   19.0930 N   0  0  0  0  0  0  0  0  0  0  0  0
   52.0320   51.7020   18.6620 H   0  0  0  0  0  0  0  0  0  0  0  0
   46.5430   49.0720   17.4040 C   0  0  0  0  0  0  0  0  0  0  0  0
   47.7740   49.8160   17.8530 C   0  0  0  0  0  0  0  0  0  0  0  0
   48.0000   51.1070   17.4120 C   0  0  0  0  0  0  0  0  0  0  0  0
   49.1270   51.7900   17.8210 C   0  0  0  0  0  0  0  0  0  0  0  0
   50.0360   51.1800   18.6770 C   0  0  0  0  0  0  0  0  0  0  0  0
   49.8070   49.8840   19.1190 C   0  0  0  0  0  0  0  0  0  0  0  0
   48.6730   49.2080   18.7090 C   0  0  0  0  0  0  0  0  0  0  0  0
   50.7710   49.2300   20.0300 N   0  0  0  0  0  0  0  0  0  0  0  0
   50.3830   48.7170   21.0540 O   0  0  0  0  0  0  0  0  0  0  0  0
   51.9480   49.2100   19.7520 O   0  0  0  0  0  0  0  0  0  0  0  0
   51.0960   52.7710   20.0930 C   0  0  0  0  0  0  0  0  0  0  0  0
   51.3680   52.2810   21.7110 S   0  0  0  0  0  0  0  0  0  0  0  0
   50.7980   54.0560   19.8190 N   0  0  0  0  0  0  0  0  0  0  0  0
   50.1280   54.2670   19.1510 H   0  0  0  0  0  0  0  0  0  0  0  0
   51.4390   55.0620   20.4850 N   0  0  0  0  0  0  0  0  0  0  0  0
   50.4750   55.9740   21.1180 C   0  0  0  0  0  0  0  0  0  0  0  0
   51.2310   57.0490   21.9010 C   0  0  0  0  0  0  0  0  0  0  0  0
   52.1080   57.7930   20.9880 N   0  0  0  0  0  0  0  0  0  0  0  0
   51.5530   58.2200   20.2610 H   0  0  0  0  0  0  0  0  0  0  0  0
   52.8210   58.8370   21.7370 C   0  0  0  0  0  0  0  0  0  0  0  0
   53.0810   56.8740   20.3830 C   0  0  0  0  0  0  0  0  0  0  0  0
   52.3410   55.7970   19.5880 C   0  0  0  0  0  0  0  0  0  0  0  0
  1 13  1  0  0  0  0
  2  1  1  0  0  0  0
  3  4  1  0  0  0  0
  4  9  2  0  0  0  0
  5  6  2  0  0  0  0
  5  4  1  0  0  0  0
  6  7  1  0  0  0  0
  7  1  1  0  0  0  0
  7  8  2  0  0  0  0
  8 10  1  0  0  0  0
  9  8  1  0  0  0  0
 10 11  2  0  0  0  0
 12 10  2  0  0  0  0
 13 14  2  0  0  0  0
 15 13  1  0  0  0  0
 15 17  1  0  0  0  0
 16 15  1  0  0  0  0
 17 18  1  0  0  0  0
 18 19  1  0  0  0  0
 20 22  1  0  0  0  0
 20 19  1  0  0  0  0
 21 20  1  0  0  0  0
 23 20  1  0  0  0  0
 24 23  1  0  0  0  0
 24 17  1  0  0  0  0
M  END
>  <MODEL>
6

>  <REMARK>
  Name = ZINC39974894
                            x       y       z     vdW  Elec       q    Type
                         _______ _______ _______ _____ _____    ______ ____

>  <TORSDO>
F 5

>  <minimizedAffinity>
-7.031758083770165

$$$$
ZINC39974894
 OpenBabel10211216363D

 24 25  0  0  0  0  0  0  0  0999 V2000
   50.6320   51.1740   17.4880 N   0  0  0  0  0  0  0  0  0  0  0  0
   51.1690   50.9530   16.7110 H   0  0  0  0  0  0  0  0  0  0  0  0
   46.1960   47.9280   18.8890 C   0  0  0  0  0  0  0  0  0  0  0  0
   47.3740   48.7900   18.5170 C   0  0  0  0  0  0  0  0  0  0  0  0
   48.5250   48.7560   19.2840 C   0  0  0  0  0  0  0  0  0  0  0  0
   49.6060   49.5440   18.9450 C   0  0  0  0  0  0  0  0  0  0  0  0
   49.5380   50.3740   17.8340 C   0  0  0  0  0  0  0  0  0  0  0  0
   48.3820   50.4060   17.0650 C   0  0  0  0  0  0  0  0  0  0  0  0
   47.3050   49.6100   17.4070 C   0  0  0  0  0  0  0  0  0  0  0  0
   48.3050   51.2880   15.8790 N   0  0  0  0  0  0  0  0  0  0  0  0
   48.3120   52.4890   16.0180 O   0  0  0  0  0  0  0  0  0  0  0  0
   48.2340   50.8080   14.7720 O   0  0  0  0  0  0  0  0  0  0  0  0
   50.9400   52.2530   18.2350 C   0  0  0  0  0  0  0  0  0  0  0  0
   52.5790   52.6260   18.5650 S   0  0  0  0  0  0  0  0  0  0  0  0
   49.9590   53.0380   18.7210 N   0  0  0  0  0  0  0  0  0  0  0  0
   49.0320   52.7650   18.6360 H   0  0  0  0  0  0  0  0  0  0  0  0
   50.2700   54.2180   19.3350 N   0  0  0  0  0  0  0  0  0  0  0  0
   50.2870   54.0640   20.7970 C   0  0  0  0  0  0  0  0  0  0  0  0
   50.6970   55.3890   21.4430 C   0  0  0  0  0  0  0  0  0  0  0  0
   49.7450   56.4370   21.0550 N   0  0  0  0  0  0  0  0  0  0  0  0
   48.8170   56.1780   21.3560 H   0  0  0  0  0  0  0  0  0  0  0  0
   50.1280   57.7060   21.6900 C   0  0  0  0  0  0  0  0  0  0  0  0
   49.7580   56.5970   19.5950 C   0  0  0  0  0  0  0  0  0  0  0  0
   49.3400   55.2830   18.9330 C   0  0  0  0  0  0  0  0  0  0  0  0
  1  7  1  0  0  0  0
  1 13  1  0  0  0  0
  2  1  1  0  0  0  0
  4  3  1  0  0  0  0
  4  5  2  0  0  0  0
  6  5  1  0  0  0  0
  7  6  2  0  0  0  0
  8  9  2  0  0  0  0
  8  7  1  0  0  0  0
  9  4  1  0  0  0  0
 10 11  2  0  0  0  0
 10  8  1  0  0  0  0
 12 10  2  0  0  0  0
 13 14  2  0  0  0  0
 13 15  1  0  0  0  0
 15 17  1  0  0  0  0
 16 15  1  0  0  0  0
 17 18  1  0  0  0  0
 18 19  1  0  0  0  0
 20 21  1  0  0  0  0
 20 19  1  0  0  0  0
 20 22  1  0  0  0  0
 23 20  1  0  0  0  0
 24 17  1  0  0  0  0
 24 23  1  0  0  0  0
M  END
>  <MODEL>
7

>  <REMARK>
  Name = ZINC39974894
                            x       y       z     vdW  Elec       q    Type
                         _______ _______ _______ _____ _____    ______ ____

>  <TORSDO>
F 5

>  <minimizedAffinity>
-6.9177374723523686

$$$$
ZINC39974894
 OpenBabel10211216363D

 24 25  0  0  0  0  0  0  0  0999 V2000
   50.5590   51.4050   17.2740 N   0  0  0  0  0  0  0  0  0  0  0  0
   51.1920   51.4860   16.5440 H   0  0  0  0  0  0  0  0  0  0  0  0
   49.0150   56.0090   20.2080 C   0  0  0  0  0  0  0  0  0  0  0  0
   49.4250   54.7860   19.4280 C   0  0  0  0  0  0  0  0  0  0  0  0
   48.5020   54.1330   18.6310 C   0  0  0  0  0  0  0  0  0  0  0  0
   48.8750   53.0130   17.9160 C   0  0  0  0  0  0  0  0  0  0  0  0
   50.1780   52.5400   17.9980 C   0  0  0  0  0  0  0  0  0  0  0  0
   51.1040   53.1980   18.7980 C   0  0  0  0  0  0  0  0  0  0  0  0
   50.7250   54.3220   19.5070 C   0  0  0  0  0  0  0  0  0  0  0  0
   52.4930   52.6990   18.8870 N   0  0  0  0  0  0  0  0  0  0  0  0
   52.8280   52.0060   19.8200 O   0  0  0  0  0  0  0  0  0  0  0  0
   53.2950   52.9840   18.0280 O   0  0  0  0  0  0  0  0  0  0  0  0
   50.0470   50.2000   17.5920 C   0  0  0  0  0  0  0  0  0  0  0  0
   50.0510   49.6710   19.2210 S   0  0  0  0  0  0  0  0  0  0  0  0
   49.5310   49.4110   16.6290 N   0  0  0  0  0  0  0  0  0  0  0  0
   50.0190   49.2720   15.8030 H   0  0  0  0  0  0  0  0  0  0  0  0
   48.3210   48.8070   16.8170 N   0  0  0  0  0  0  0  0  0  0  0  0
   48.3450   47.4170   16.3400 C   0  0  0  0  0  0  0  0  0  0  0  0
   46.9940   46.7590   16.6230 C   0  0  0  0  0  0  0  0  0  0  0  0
   45.9310   47.5100   15.9410 N   0  0  0  0  0  0  0  0  0  0  0  0
   46.1110   47.5200   14.9470 H   0  0  0  0  0  0  0  0  0  0  0  0
   44.6360   46.8670   16.1980 C   0  0  0  0  0  0  0  0  0  0  0  0
   45.9030   48.8890   16.4470 C   0  0  0  0  0  0  0  0  0  0  0  0
   47.2450   49.5650   16.1630 C   0  0  0  0  0  0  0  0  0  0  0  0
  1 13  1  0  0  0  0
  1  7  1  0  0  0  0
  2  1  1  0  0  0  0
  4  9  1  0  0  0  0
  4  3  1  0  0  0  0
  5  4  2  0  0  0  0
  6  7  2  0  0  0  0
  6  5  1  0  0  0  0
  7  8  1  0  0  0  0
  8 10  1  0  0  0  0
  8  9  2  0  0  0  0
 10 11  2  0  0  0  0
 12 10  2  0  0  0  0
 13 14  2  0  0  0  0
 15 17  1  0  0  0  0
 15 13  1  0  0  0  0
 16 15  1  0  0  0  0
 18 19  1  0  0  0  0
 18 17  1  0  0  0  0
 20 22  1  0  0  0  0
 20 23  1  0  0  0  0
 20 19  1  0  0  0  0
 21 20  1  0  0  0  0
 24 23  1  0  0  0  0
 24 17  1  0  0  0  0
M  END
>  <MODEL>
8

>  <REMARK>
  Name = ZINC39974894
                            x       y       z     vdW  Elec       q    Type
                         _______ _______ _______ _____ _____    ______ ____

>  <TORSDO>
F 5

>  <minimizedAffinity>
-6.8896166923283628

$$$$
ZINC39974894
 OpenBabel10211216363D

 24 25  0  0  0  0  0  0  0  0999 V2000
   50.8740   51.9380   17.8060 N   0  0  0  0  0  0  0  0  0  0  0  0
   51.4870   51.8330   17.0610 H   0  0  0  0  0  0  0  0  0  0  0  0
   46.6550   48.2200   18.5530 C   0  0  0  0  0  0  0  0  0  0  0  0
   47.7760   49.2080   18.3550 C   0  0  0  0  0  0  0  0  0  0  0  0
   47.6610   50.1980   17.3960 C   0  0  0  0  0  0  0  0  0  0  0  0
   48.6860   51.1050   17.2130 C   0  0  0  0  0  0  0  0  0  0  0  0
   49.8340   51.0210   17.9900 C   0  0  0  0  0  0  0  0  0  0  0  0
   49.9460   50.0260   18.9520 C   0  0  0  0  0  0  0  0  0  0  0  0
   48.9140   49.1250   19.1340 C   0  0  0  0  0  0  0  0  0  0  0  0
   51.1670   49.9320   19.7830 N   0  0  0  0  0  0  0  0  0  0  0  0
   51.0970   50.0890   20.9800 O   0  0  0  0  0  0  0  0  0  0  0  0
   52.2340   49.7000   19.2660 O   0  0  0  0  0  0  0  0  0  0  0  0
   51.0250   52.9670   18.6630 C   0  0  0  0  0  0  0  0  0  0  0  0
   52.5920   53.5470   19.0380 S   0  0  0  0  0  0  0  0  0  0  0  0
   49.9420   53.5400   19.2250 N   0  0  0  0  0  0  0  0  0  0  0  0
   49.3400   53.0090   19.7700 H   0  0  0  0  0  0  0  0  0  0  0  0
   49.6930   54.8690   19.0290 N   0  0  0  0  0  0  0  0  0  0  0  0
   49.2570   55.5140   20.2750 C   0  0  0  0  0  0  0  0  0  0  0  0
   49.0470   57.0090   20.0270 C   0  0  0  0  0  0  0  0  0  0  0  0
   48.0340   57.1930   18.9800 N   0  0  0  0  0  0  0  0  0  0  0  0
   47.1670   56.7650   19.2710 H   0  0  0  0  0  0  0  0  0  0  0  0
   47.8190   58.6290   18.7540 C   0  0  0  0  0  0  0  0  0  0  0  0
   48.4940   56.5650   17.7340 C   0  0  0  0  0  0  0  0  0  0  0  0
   48.7000   55.0670   17.9630 C   0  0  0  0  0  0  0  0  0  0  0  0
  1  7  1  0  0  0  0
  1 13  1  0  0  0  0
  2  1  1  0  0  0  0
  4  3  1  0  0  0  0
  4  9  2  0  0  0  0
  5  4  1  0  0  0  0
  6  5  2  0  0  0  0
  6  7  1  0  0  0  0
  7  8  2  0  0  0  0
  8  9  1  0  0  0  0
  8 10  1  0  0  0  0
 10 11  2  0  0  0  0
 12 10  2  0  0  0  0
 13 14  2  0  0  0  0
 13 15  1  0  0  0  0
 15 16  1  0  0  0  0
 17 15  1  0  0  0  0
 17 18  1  0  0  0  0
 19 18  1  0  0  0  0
 20 21  1  0  0  0  0
 20 19  1  0  0  0  0
 22 20  1  0  0  0  0
 23 24  1  0  0  0  0
 23 20  1  0  0  0  0
 24 17  1  0  0  0  0
M  END
>  <MODEL>
9

>  <REMARK>
  Name = ZINC39974894
                            x       y       z     vdW  Elec       q    Type
                         _______ _______ _______ _____ _____    ______ ____

>  <TORSDO>
F 5

>  <minimizedAffinity>
-6.7649194914751911

$$$$
ZINC66187637
 OpenBabel10211216373D

 25 26  0  0  1  0  0  0  0  0999 V2000
   51.6600   52.6750   17.9700 N   0  0  0  0  0  0  0  0  0  0  0  0
   51.9750   52.9120   17.0830 H   0  0  0  0  0  0  0  0  0  0  0  0
   50.4500   52.1020   18.1250 C   0  0  0  0  0  0  0  0  0  0  0  0
   49.6780   51.8560   17.0470 N   0  0  0  0  0  0  0  0  0  0  0  0
   49.9930   52.0920   16.1610 H   0  0  0  0  0  0  0  0  0  0  0  0
   50.0560   51.8060   19.2350 O   0  0  0  0  0  0  0  0  0  0  0  0
   52.4990   52.9430   19.1400 C   0  0  0  0  0  0  0  0  0  0  0  0
   51.3550   56.6680   22.2880 C   0  0  0  0  0  0  0  0  0  0  0  0
   51.7100   55.9440   21.0150 C   0  0  0  0  0  0  0  0  0  0  0  0
   51.9150   54.6270   20.9010 N   0  0  0  0  0  0  0  0  0  0  0  0
   52.2040   54.3250   19.6650 C   0  0  0  0  0  0  0  0  0  0  0  0
   52.1930   55.4520   18.9430 O   0  0  0  0  0  0  0  0  0  0  0  0
   51.8620   56.4970   19.8460 N   0  0  0  0  0  0  0  0  0  0  0  0
   48.3630   51.2320   17.2160 C   0  0  0  0  0  0  0  0  0  0  0  0
   48.3690   49.8470   16.5670 C   0  0  1  0  0  0  0  0  0  0  0  0
   49.0890   48.8570   17.4850 C   0  0  0  0  0  0  0  0  0  0  0  0
   48.3610   48.7870   18.8290 C   0  0  0  0  0  0  0  0  0  0  0  0
   46.9200   48.3230   18.6070 C   0  0  0  0  0  0  0  0  0  0  0  0
   46.2010   49.3130   17.6890 C   0  0  2  0  0  0  0  0  0  0  0  0
   44.7600   48.8480   17.4660 C   0  0  0  0  0  0  0  0  0  0  0  0
   46.9280   49.3820   16.3440 C   0  0  0  0  0  0  0  0  0  0  0  0
   49.0680   49.9130   15.2760 N   0  0  0  0  0  0  0  0  0  0  0  0
   49.6170   50.7580   15.2340 H   0  0  0  0  0  0  0  0  0  0  0  0
   48.0820   49.9140   14.1870 C   0  0  0  0  0  0  0  0  0  0  0  0
   49.9510   48.7480   15.1370 C   0  0  0  0  0  0  0  0  0  0  0  0
  1  3  1  0  0  0  0
  1  7  1  0  0  0  0
  2  1  1  0  0  0  0
  3  6  2  0  0  0  0
  4 14  1  0  0  0  0
  4  3  1  0  0  0  0
  5  4  1  0  0  0  0
  7 11  1  0  0  0  0
  9  8  1  0  0  0  0
 10  9  1  0  0  0  0
 11 10  2  0  0  0  0
 12 11  1  0  0  0  0
 12 13  1  0  0  0  0
 13  9  2  0  0  0  0
 15 22  1  6  0  0  0
 15 14  1  0  0  0  0
 15 16  1  0  0  0  0
 16 17  1  0  0  0  0
 18 17  1  0  0  0  0
 19 20  1  6  0  0  0
 19 18  1  0  0  0  0
 21 15  1  0  0  0  0
 21 19  1  0  0  0  0
 23 22  1  0  0  0  0
 24 22  1  0  0  0  0
 25 22  1  0  0  0  0
M  END
>  <MODEL>
1

>  <REMARK>
  Name = ZINC66187637
                            x       y       z     vdW  Elec       q    Type
                         _______ _______ _______ _____ _____    ______ ____

>  <TORSDO>
F 5

>  <minimizedAffinity>
-7.6894805252377312

$$$$
ZINC66187637
 OpenBabel10211216373D

 25 26  0  0  1  0  0  0  0  0999 V2000
   50.6880   51.7790   20.1420 N   0  0  0  0  0  0  0  0  0  0  0  0
   50.0110   52.4650   20.0280 H   0  0  0  0  0  0  0  0  0  0  0  0
   50.5280   50.5710   19.5640 C   0  0  0  0  0  0  0  0  0  0  0  0
   49.4290   50.3180   18.8260 N   0  0  0  0  0  0  0  0  0  0  0  0
   48.7530   51.0040   18.7120 H   0  0  0  0  0  0  0  0  0  0  0  0
   51.3750   49.7130   19.7080 O   0  0  0  0  0  0  0  0  0  0  0  0
   51.8810   52.0550   20.9450 C   0  0  0  0  0  0  0  0  0  0  0  0
   52.0870   57.0350   20.4470 C   0  0  0  0  0  0  0  0  0  0  0  0
   52.0140   55.6750   21.0910 C   0  0  0  0  0  0  0  0  0  0  0  0
   51.9900   54.5060   20.4400 N   0  0  0  0  0  0  0  0  0  0  0  0
   51.9260   53.5210   21.2920 C   0  0  0  0  0  0  0  0  0  0  0  0
   51.9080   54.0340   22.5280 O   0  0  0  0  0  0  0  0  0  0  0  0
   51.9720   55.4440   22.3720 N   0  0  0  0  0  0  0  0  0  0  0  0
   49.2560   49.0060   18.1980 C   0  0  0  0  0  0  0  0  0  0  0  0
   48.6680   49.1860   16.7970 C   0  0  1  0  0  0  0  0  0  0  0  0
   48.8680   47.9000   15.9920 C   0  0  0  0  0  0  0  0  0  0  0  0
   48.1600   46.7410   16.6970 C   0  0  0  0  0  0  0  0  0  0  0  0
   46.6650   47.0470   16.8070 C   0  0  0  0  0  0  0  0  0  0  0  0
   46.4650   48.3330   17.6120 C   0  0  2  0  0  0  0  0  0  0  0  0
   44.9700   48.6390   17.7220 C   0  0  0  0  0  0  0  0  0  0  0  0
   47.1730   49.4920   16.9060 C   0  0  0  0  0  0  0  0  0  0  0  0
   49.3470   50.2970   16.1190 N   0  0  0  0  0  0  0  0  0  0  0  0
   50.0440   50.6900   16.7330 H   0  0  0  0  0  0  0  0  0  0  0  0
   48.3630   51.3310   15.7690 C   0  0  0  0  0  0  0  0  0  0  0  0
   49.9940   49.8040   14.8950 C   0  0  0  0  0  0  0  0  0  0  0  0
  1  7  1  0  0  0  0
  2  1  1  0  0  0  0
  3  6  2  0  0  0  0
  3  1  1  0  0  0  0
  4  3  1  0  0  0  0
  5  4  1  0  0  0  0
  7 11  1  0  0  0  0
  8  9  1  0  0  0  0
  9 13  2  0  0  0  0
 10  9  1  0  0  0  0
 10 11  2  0  0  0  0
 11 12  1  0  0  0  0
 13 12  1  0  0  0  0
 14  4  1  0  0  0  0
 15 22  1  6  0  0  0
 15 21  1  0  0  0  0
 15 14  1  0  0  0  0
 16 17  1  0  0  0  0
 16 15  1  0  0  0  0
 17 18  1  0  0  0  0
 18 19  1  0  0  0  0
 19 20  1  6  0  0  0
 21 19  1  0  0  0  0
 22 23  1  0  0  0  0
 24 22  1  0  0  0  0
 25 22  1  0  0  0  0
M  END
>  <MODEL>
2

>  <REMARK>
  Name = ZINC66187637
                            x       y       z     vdW  Elec       q    Type
                         _______ _______ _______ _____ _____    ______ ____

>  <TORSDO>
F 5

>  <minimizedAffinity>
-7.6356700804752355

$$$$
ZINC66187637
 OpenBabel10211216373D

 25 26  0  0  1  0  0  0  0  0999 V2000
   52.4450   51.9690   20.7840 N   0  0  0  0  0  0  0  0  0  0  0  0
   53.2780   52.1800   20.3330 H   0  0  0  0  0  0  0  0  0  0  0  0
   51.6990   52.9570   21.3180 C   0  0  0  0  0  0  0  0  0  0  0  0
   52.1100   54.2380   21.2240 N   0  0  0  0  0  0  0  0  0  0  0  0
   52.9420   54.4480   20.7720 H   0  0  0  0  0  0  0  0  0  0  0  0
   50.6560   52.6940   21.8830 O   0  0  0  0  0  0  0  0  0  0  0  0
   51.9990   50.5780   20.8870 C   0  0  0  0  0  0  0  0  0  0  0  0
   48.0360   48.7210   18.4520 C   0  0  0  0  0  0  0  0  0  0  0  0
   49.3050   49.4870   18.7210 C   0  0  0  0  0  0  0  0  0  0  0  0
   49.9520   49.5330   19.8910 N   0  0  0  0  0  0  0  0  0  0  0  0
   51.0140   50.2830   19.7850 C   0  0  0  0  0  0  0  0  0  0  0  0
   51.0800   50.7440   18.5300 O   0  0  0  0  0  0  0  0  0  0  0  0
   49.9550   50.2060   17.8510 N   0  0  0  0  0  0  0  0  0  0  0  0
   51.2990   55.3110   21.8040 C   0  0  0  0  0  0  0  0  0  0  0  0
   51.5450   56.6100   21.0330 C   0  0  1  0  0  0  0  0  0  0  0  0
   51.6060   56.3080   19.5330 C   0  0  0  0  0  0  0  0  0  0  0  0
   50.2790   55.6920   19.0830 C   0  0  0  0  0  0  0  0  0  0  0  0
   49.1400   56.6750   19.3620 C   0  0  0  0  0  0  0  0  0  0  0  0
   49.0800   56.9750   20.8600 C   0  0  2  0  0  0  0  0  0  0  0  0
   47.9400   57.9580   21.1380 C   0  0  0  0  0  0  0  0  0  0  0  0
   50.4060   57.5920   21.3110 C   0  0  0  0  0  0  0  0  0  0  0  0
   52.8190   57.2010   21.4640 N   0  0  0  0  0  0  0  0  0  0  0  0
   53.1700   56.6980   22.2640 H   0  0  0  0  0  0  0  0  0  0  0  0
   52.6050   58.6090   21.8260 C   0  0  0  0  0  0  0  0  0  0  0  0
   53.7930   57.1210   20.3670 C   0  0  0  0  0  0  0  0  0  0  0  0
  1  7  1  0  0  0  0
  1  3  1  0  0  0  0
  2  1  1  0  0  0  0
  3  6  2  0  0  0  0
  4  3  1  0  0  0  0
  4 14  1  0  0  0  0
  5  4  1  0  0  0  0
  8  9  1  0  0  0  0
  9 10  1  0  0  0  0
 11 10  2  0  0  0  0
 11  7  1  0  0  0  0
 12 11  1  0  0  0  0
 13 12  1  0  0  0  0
 13  9  2  0  0  0  0
 15 21  1  0  0  0  0
 15 22  1  1  0  0  0
 15 14  1  0  0  0  0
 16 15  1  0  0  0  0
 17 18  1  0  0  0  0
 17 16  1  0  0  0  0
 18 19  1  0  0  0  0
 19 20  1  6  0  0  0
 19 21  1  0  0  0  0
 22 24  1  0  0  0  0
 22 23  1  0  0  0  0
 25 22  1  0  0  0  0
M  END
>  <MODEL>
3

>  <REMARK>
  Name = ZINC66187637
                            x       y       z     vdW  Elec       q    Type
                         _______ _______ _______ _____ _____    ______ ____

>  <TORSDO>
F 5

>  <minimizedAffinity>
-7.6343399515170187

$$$$
ZINC66187637
 OpenBabel10211216373D

 25 26  0  0  1  0  0  0  0  0999 V2000
   51.8110   50.5350   19.3870 N   0  0  0  0  0  0  0  0  0  0  0  0
   52.1850   50.8190   18.5390 H   0  0  0  0  0  0  0  0  0  0  0  0
   50.6820   49.7980   19.4130 C   0  0  0  0  0  0  0  0  0  0  0  0
   50.0760   49.4530   18.2600 N   0  0  0  0  0  0  0  0  0  0  0  0
   50.4510   49.7370   17.4110 H   0  0  0  0  0  0  0  0  0  0  0  0
   50.2130   49.4420   20.4770 O   0  0  0  0  0  0  0  0  0  0  0  0
   52.4700   50.9100   20.6400 C   0  0  0  0  0  0  0  0  0  0  0  0
   51.7440   55.8400   20.1330 C   0  0  0  0  0  0  0  0  0  0  0  0
   51.8250   54.4750   20.7660 C   0  0  0  0  0  0  0  0  0  0  0  0
   52.1710   53.3460   20.1380 N   0  0  0  0  0  0  0  0  0  0  0  0
   52.1420   52.3430   20.9720 C   0  0  0  0  0  0  0  0  0  0  0  0
   51.7720   52.8050   22.1720 O   0  0  0  0  0  0  0  0  0  0  0  0
   51.5750   54.2030   22.0150 N   0  0  0  0  0  0  0  0  0  0  0  0
   48.8500   48.6520   18.2880 C   0  0  0  0  0  0  0  0  0  0  0  0
   47.9340   49.0800   17.1400 C   0  0  1  0  0  0  0  0  0  0  0  0
   48.0740   48.0900   15.9810 C   0  0  0  0  0  0  0  0  0  0  0  0
   47.6780   46.6900   16.4550 C   0  0  0  0  0  0  0  0  0  0  0  0
   46.2270   46.7070   16.9390 C   0  0  0  0  0  0  0  0  0  0  0  0
   46.0870   47.6960   18.0980 C   0  0  2  0  0  0  0  0  0  0  0  0
   44.6360   47.7130   18.5830 C   0  0  0  0  0  0  0  0  0  0  0  0
   46.4830   49.0960   17.6250 C   0  0  0  0  0  0  0  0  0  0  0  0
   48.3140   50.4230   16.6850 N   0  0  0  0  0  0  0  0  0  0  0  0
   49.2000   50.6790   17.0940 H   0  0  0  0  0  0  0  0  0  0  0  0
   47.2860   51.3880   17.0980 C   0  0  0  0  0  0  0  0  0  0  0  0
   48.4310   50.4300   15.2200 C   0  0  0  0  0  0  0  0  0  0  0  0
  1  3  1  0  0  0  0
  1  7  1  0  0  0  0
  2  1  1  0  0  0  0
  3  6  2  0  0  0  0
  4 14  1  0  0  0  0
  4  3  1  0  0  0  0
  5  4  1  0  0  0  0
  7 11  1  0  0  0  0
  8  9  1  0  0  0  0
  9 13  2  0  0  0  0
 10  9  1  0  0  0  0
 10 11  2  0  0  0  0
 11 12  1  0  0  0  0
 13 12  1  0  0  0  0
 15 22  1  6  0  0  0
 15 21  1  0  0  0  0
 15 14  1  0  0  0  0
 16 17  1  0  0  0  0
 16 15  1  0  0  0  0
 17 18  1  0  0  0  0
 18 19  1  0  0  0  0
 19 20  1  6  0  0  0
 21 19  1  0  0  0  0
 22 23  1  0  0  0  0
 22 24  1  0  0  0  0
 25 22  1  0  0  0  0
M  END
>  <MODEL>
4

>  <REMARK>
  Name = ZINC66187637
                            x       y       z     vdW  Elec       q    Type
                         _______ _______ _______ _____ _____    ______ ____

>  <TORSDO>
F 5

>  <minimizedAffinity>
-7.4834969878575466

$$$$
ZINC66187637
 OpenBabel10211216373D

 25 26  0  0  1  0  0  0  0  0999 V2000
   47.8420   50.9160   17.5990 N   0  0  0  0  0  0  0  0  0  0  0  0
   47.0760   51.3080   18.0470 H   0  0  0  0  0  0  0  0  0  0  0  0
   49.0400   51.5320   17.6460 C   0  0  0  0  0  0  0  0  0  0  0  0
   49.1740   52.6940   18.3170 N   0  0  0  0  0  0  0  0  0  0  0  0
   48.4080   53.0860   18.7650 H   0  0  0  0  0  0  0  0  0  0  0  0
   49.9990   51.0400   17.0840 O   0  0  0  0  0  0  0  0  0  0  0  0
   47.6960   49.6540   16.8700 C   0  0  0  0  0  0  0  0  0  0  0  0
   44.5030   46.9830   19.6570 C   0  0  0  0  0  0  0  0  0  0  0  0
   45.0490   47.8030   18.5160 C   0  0  0  0  0  0  0  0  0  0  0  0
   46.2900   48.2950   18.4360 N   0  0  0  0  0  0  0  0  0  0  0  0
   46.4390   48.9550   17.3210 C   0  0  0  0  0  0  0  0  0  0  0  0
   45.2840   48.9050   16.6460 O   0  0  0  0  0  0  0  0  0  0  0  0
   44.3910   48.1420   17.4430 N   0  0  0  0  0  0  0  0  0  0  0  0
   50.4760   53.3630   18.3680 C   0  0  0  0  0  0  0  0  0  0  0  0
   50.8570   53.6260   19.8260 C   0  0  1  0  0  0  0  0  0  0  0  0
   52.1610   54.4260   19.8760 C   0  0  0  0  0  0  0  0  0  0  0  0
   51.9700   55.7590   19.1500 C   0  0  0  0  0  0  0  0  0  0  0  0
   50.8560   56.5560   19.8330 C   0  0  0  0  0  0  0  0  0  0  0  0
   49.5520   55.7570   19.7820 C   0  0  2  0  0  0  0  0  0  0  0  0
   48.4390   56.5550   20.4650 C   0  0  0  0  0  0  0  0  0  0  0  0
   49.7430   54.4240   20.5090 C   0  0  0  0  0  0  0  0  0  0  0  0
   51.0410   52.3470   20.5230 N   0  0  0  0  0  0  0  0  0  0  0  0
   50.2980   51.7140   20.2670 H   0  0  0  0  0  0  0  0  0  0  0  0
   51.0120   52.5730   21.9750 C   0  0  0  0  0  0  0  0  0  0  0  0
   52.3350   51.7640   20.1440 C   0  0  0  0  0  0  0  0  0  0  0  0
  1  3  1  0  0  0  0
  1  2  1  0  0  0  0
  3  4  1  0  0  0  0
  4 14  1  0  0  0  0
  4  5  1  0  0  0  0
  6  3  2  0  0  0  0
  7 11  1  0  0  0  0
  7  1  1  0  0  0  0
  9  8  1  0  0  0  0
 10  9  1  0  0  0  0
 11 10  2  0  0  0  0
 12 11  1  0  0  0  0
 12 13  1  0  0  0  0
 13  9  2  0  0  0  0
 15 14  1  6  0  0  0
 15 16  1  0  0  0  0
 15 21  1  0  0  0  0
 15 22  1  0  0  0  0
 17 18  1  0  0  0  0
 17 16  1  0  0  0  0
 19 18  1  0  0  0  0
 19 20  1  1  0  0  0
 19 21  1  0  0  0  0
 22 24  1  0  0  0  0
 23 22  1  0  0  0  0
 25 22  1  0  0  0  0
M  END
>  <MODEL>
5

>  <REMARK>
  Name = ZINC66187637
                            x       y       z     vdW  Elec       q    Type
                         _______ _______ _______ _____ _____    ______ ____

>  <TORSDO>
F 5

>  <minimizedAffinity>
-7.196838067569578

$$$$
ZINC66187637
 OpenBabel10211216373D

 25 26  0  0  1  0  0  0  0  0999 V2000
   48.5750   49.1640   16.1560 N   0  0  0  0  0  0  0  0  0  0  0  0
   48.8570   48.2600   16.3670 H   0  0  0  0  0  0  0  0  0  0  0  0
   49.3580   50.2100   16.4900 C   0  0  0  0  0  0  0  0  0  0  0  0
   50.5330   49.9990   17.1150 N   0  0  0  0  0  0  0  0  0  0  0  0
   50.8160   49.0950   17.3250 H   0  0  0  0  0  0  0  0  0  0  0  0
   49.0040   51.3420   16.2260 O   0  0  0  0  0  0  0  0  0  0  0  0
   47.2970   49.3920   15.4780 C   0  0  0  0  0  0  0  0  0  0  0  0
   44.7790   47.2300   19.2300 C   0  0  0  0  0  0  0  0  0  0  0  0
   45.0910   47.7860   17.8640 C   0  0  0  0  0  0  0  0  0  0  0  0
   46.2490   48.3470   17.4990 N   0  0  0  0  0  0  0  0  0  0  0  0
   46.1900   48.7220   16.2510 C   0  0  0  0  0  0  0  0  0  0  0  0
   44.9790   48.4100   15.7750 O   0  0  0  0  0  0  0  0  0  0  0  0
   44.2790   47.7940   16.8460 N   0  0  0  0  0  0  0  0  0  0  0  0
   51.3840   51.1350   17.4760 C   0  0  0  0  0  0  0  0  0  0  0  0
   51.5220   51.2050   18.9980 C   0  0  1  0  0  0  0  0  0  0  0  0
   52.8370   51.9000   19.3600 C   0  0  0  0  0  0  0  0  0  0  0  0
   52.8400   53.3170   18.7820 C   0  0  0  0  0  0  0  0  0  0  0  0
   51.6670   54.1080   19.3650 C   0  0  0  0  0  0  0  0  0  0  0  0
   50.3530   53.4130   19.0030 C   0  0  2  0  0  0  0  0  0  0  0  0
   49.1800   54.2050   19.5860 C   0  0  0  0  0  0  0  0  0  0  0  0
   50.3490   51.9960   19.5810 C   0  0  0  0  0  0  0  0  0  0  0  0
   51.5200   49.8450   19.5530 N   0  0  0  0  0  0  0  0  0  0  0  0
   51.1160   49.2090   18.8830 H   0  0  0  0  0  0  0  0  0  0  0  0
   50.7260   49.8230   20.7900 C   0  0  0  0  0  0  0  0  0  0  0  0
   52.8990   49.4340   19.8500 C   0  0  0  0  0  0  0  0  0  0  0  0
  1  2  1  0  0  0  0
  1  3  1  0  0  0  0
  3  4  1  0  0  0  0
  4  5  1  0  0  0  0
  4 14  1  0  0  0  0
  6  3  2  0  0  0  0
  7  1  1  0  0  0  0
  7 11  1  0  0  0  0
  9  8  1  0  0  0  0
 10  9  1  0  0  0  0
 11 10  2  0  0  0  0
 12 11  1  0  0  0  0
 12 13  1  0  0  0  0
 13  9  2  0  0  0  0
 15 14  1  6  0  0  0
 15 16  1  0  0  0  0
 15 22  1  0  0  0  0
 15 21  1  0  0  0  0
 17 16  1  0  0  0  0
 17 18  1  0  0  0  0
 19 18  1  0  0  0  0
 19 21  1  0  0  0  0
 19 20  1  1  0  0  0
 22 25  1  0  0  0  0
 22 24  1  0  0  0  0
 23 22  1  0  0  0  0
M  END
>  <MODEL>
6

>  <REMARK>
  Name = ZINC66187637
                            x       y       z     vdW  Elec       q    Type
                         _______ _______ _______ _____ _____    ______ ____

>  <TORSDO>
F 5

>  <minimizedAffinity>
-7.1004513480819096

$$$$
ZINC66187637
 OpenBabel10211216373D

 25 26  0  0  1  0  0  0  0  0999 V2000
   48.3100   56.0250   16.6290 N   0  0  0  0  0  0  0  0  0  0  0  0
   48.4440   55.2250   16.0970 H   0  0  0  0  0  0  0  0  0  0  0  0
   48.7040   56.0520   17.9180 C   0  0  0  0  0  0  0  0  0  0  0  0
   49.2870   54.9680   18.4670 N   0  0  0  0  0  0  0  0  0  0  0  0
   49.4220   54.1680   17.9350 H   0  0  0  0  0  0  0  0  0  0  0  0
   48.5350   57.0540   18.5840 O   0  0  0  0  0  0  0  0  0  0  0  0
   47.6760   57.2030   16.0330 C   0  0  0  0  0  0  0  0  0  0  0  0
   46.5150   57.2650   11.1600 C   0  0  0  0  0  0  0  0  0  0  0  0
   47.3310   57.1700   12.4240 C   0  0  0  0  0  0  0  0  0  0  0  0
   46.8510   57.2740   13.6680 N   0  0  0  0  0  0  0  0  0  0  0  0
   47.8190   57.1450   14.5330 C   0  0  0  0  0  0  0  0  0  0  0  0
   48.9600   56.9530   13.8610 O   0  0  0  0  0  0  0  0  0  0  0  0
   48.6160   56.9680   12.4830 N   0  0  0  0  0  0  0  0  0  0  0  0
   49.7160   54.9970   19.8670 C   0  0  0  0  0  0  0  0  0  0  0  0
   51.1750   54.5490   19.9630 C   0  0  1  0  0  0  0  0  0  0  0  0
   52.0820   55.6350   19.3780 C   0  0  0  0  0  0  0  0  0  0  0  0
   51.8940   56.9330   20.1660 C   0  0  0  0  0  0  0  0  0  0  0  0
   52.2610   56.6980   21.6330 C   0  0  0  0  0  0  0  0  0  0  0  0
   51.3540   55.6130   22.2170 C   0  0  2  0  0  0  0  0  0  0  0  0
   51.7210   55.3780   23.6840 C   0  0  0  0  0  0  0  0  0  0  0  0
   51.5420   54.3130   21.4300 C   0  0  0  0  0  0  0  0  0  0  0  0
   51.3560   53.3020   19.2070 N   0  0  0  0  0  0  0  0  0  0  0  0
   50.7640   53.3150   18.3910 H   0  0  0  0  0  0  0  0  0  0  0  0
   50.9940   52.1590   20.0570 C   0  0  0  0  0  0  0  0  0  0  0  0
   52.7600   53.1790   18.7930 C   0  0  0  0  0  0  0  0  0  0  0  0
  1  3  1  0  0  0  0
  2  1  1  0  0  0  0
  3  4  1  0  0  0  0
  3  6  2  0  0  0  0
  4 14  1  0  0  0  0
  5  4  1  0  0  0  0
  7  1  1  0  0  0  0
  8  9  1  0  0  0  0
  9 13  2  0  0  0  0
  9 10  1  0  0  0  0
 10 11  2  0  0  0  0
 11  7  1  0  0  0  0
 12 11  1  0  0  0  0
 13 12  1  0  0  0  0
 14 15  1  0  0  0  0
 15 22  1  6  0  0  0
 15 21  1  0  0  0  0
 16 15  1  0  0  0  0
 16 17  1  0  0  0  0
 17 18  1  0  0  0  0
 18 19  1  0  0  0  0
 19 20  1  1  0  0  0
 21 19  1  0  0  0  0
 22 24  1  0  0  0  0
 23 22  1  0  0  0  0
 25 22  1  0  0  0  0
M  END
>  <MODEL>
7

>  <REMARK>
  Name = ZINC66187637
                            x       y       z     vdW  Elec       q    Type
                         _______ _______ _______ _____ _____    ______ ____

>  <TORSDO>
F 5

>  <minimizedAffinity>
-6.8499840788500492

$$$$
ZINC66187637
 OpenBabel10211216373D

 25 26  0  0  1  0  0  0  0  0999 V2000
   48.6530   54.7780   17.6620 N   0  0  0  0  0  0  0  0  0  0  0  0
   49.1640   54.6120   18.4700 H   0  0  0  0  0  0  0  0  0  0  0  0
   48.0710   53.7520   17.0100 C   0  0  0  0  0  0  0  0  0  0  0  0
   48.1980   52.4950   17.4800 N   0  0  0  0  0  0  0  0  0  0  0  0
   48.7090   52.3300   18.2890 H   0  0  0  0  0  0  0  0  0  0  0  0
   47.4320   53.9600   15.9980 O   0  0  0  0  0  0  0  0  0  0  0  0
   48.5150   56.1430   17.1510 C   0  0  0  0  0  0  0  0  0  0  0  0
   48.7270   58.1790   21.7240 C   0  0  0  0  0  0  0  0  0  0  0  0
   48.3700   57.9810   20.2730 C   0  0  0  0  0  0  0  0  0  0  0  0
   48.7730   56.9630   19.5040 N   0  0  0  0  0  0  0  0  0  0  0  0
   48.2860   57.0910   18.3010 C   0  0  0  0  0  0  0  0  0  0  0  0
   47.5490   58.2070   18.2620 O   0  0  0  0  0  0  0  0  0  0  0  0
   47.6130   58.7700   19.5640 N   0  0  0  0  0  0  0  0  0  0  0  0
   47.5660   51.3810   16.7710 C   0  0  0  0  0  0  0  0  0  0  0  0
   48.5630   50.2280   16.6400 C   0  0  1  0  0  0  0  0  0  0  0  0
   48.7130   49.5270   17.9930 C   0  0  0  0  0  0  0  0  0  0  0  0
   47.3550   48.9790   18.4360 C   0  0  0  0  0  0  0  0  0  0  0  0
   46.8450   47.9780   17.3960 C   0  0  0  0  0  0  0  0  0  0  0  0
   46.6950   48.6790   16.0450 C   0  0  2  0  0  0  0  0  0  0  0  0
   46.1850   47.6790   15.0050 C   0  0  0  0  0  0  0  0  0  0  0  0
   48.0530   49.2280   15.6010 C   0  0  0  0  0  0  0  0  0  0  0  0
   49.8670   50.7540   16.2160 N   0  0  0  0  0  0  0  0  0  0  0  0
   49.7720   51.7260   15.9630 H   0  0  0  0  0  0  0  0  0  0  0  0
   50.3470   49.9910   15.0550 C   0  0  0  0  0  0  0  0  0  0  0  0
   50.8300   50.6260   17.3170 C   0  0  0  0  0  0  0  0  0  0  0  0
  1  2  1  0  0  0  0
  3  4  1  0  0  0  0
  3  1  1  0  0  0  0
  4  5  1  0  0  0  0
  6  3  2  0  0  0  0
  7  1  1  0  0  0  0
  7 11  1  0  0  0  0
  9  8  1  0  0  0  0
 10  9  1  0  0  0  0
 11 10  2  0  0  0  0
 12 11  1  0  0  0  0
 12 13  1  0  0  0  0
 13  9  2  0  0  0  0
 14  4  1  0  0  0  0
 15 22  1  6  0  0  0
 15 14  1  0  0  0  0
 15 16  1  0  0  0  0
 16 17  1  0  0  0  0
 18 17  1  0  0  0  0
 19 20  1  6  0  0  0
 19 18  1  0  0  0  0
 21 19  1  0  0  0  0
 21 15  1  0  0  0  0
 22 25  1  0  0  0  0
 23 22  1  0  0  0  0
 24 22  1  0  0  0  0
M  END
>  <MODEL>
8

>  <REMARK>
  Name = ZINC66187637
                            x       y       z     vdW  Elec       q    Type
                         _______ _______ _______ _____ _____    ______ ____

>  <TORSDO>
F 5

>  <minimizedAffinity>
-6.830853458379865

$$$$
ZINC66187637
 OpenBabel10211216373D

 25 26  0  0  1  0  0  0  0  0999 V2000
   50.0820   55.4480   18.6220 N   0  0  0  0  0  0  0  0  0  0  0  0
   50.8440   55.4700   18.0210 H   0  0  0  0  0  0  0  0  0  0  0  0
   49.2370   54.3980   18.6010 C   0  0  0  0  0  0  0  0  0  0  0  0
   49.4500   53.3780   17.7470 N   0  0  0  0  0  0  0  0  0  0  0  0
   50.2120   53.4000   17.1460 H   0  0  0  0  0  0  0  0  0  0  0  0
   48.2830   54.3720   19.3540 O   0  0  0  0  0  0  0  0  0  0  0  0
   49.8510   56.5570   19.5500 C   0  0  0  0  0  0  0  0  0  0  0  0
   53.9850   57.9960   21.9860 C   0  0  0  0  0  0  0  0  0  0  0  0
   52.7470   57.2140   21.6290 C   0  0  0  0  0  0  0  0  0  0  0  0
   51.9410   57.4650   20.5910 N   0  0  0  0  0  0  0  0  0  0  0  0
   50.9620   56.6020   20.5670 C   0  0  0  0  0  0  0  0  0  0  0  0
   51.1150   55.7640   21.6000 O   0  0  0  0  0  0  0  0  0  0  0  0
   52.2920   56.1800   22.2770 N   0  0  0  0  0  0  0  0  0  0  0  0
   48.5310   52.2370   17.7250 C   0  0  0  0  0  0  0  0  0  0  0  0
   49.3350   50.9350   17.7450 C   0  0  1  0  0  0  0  0  0  0  0  0
   48.5020   49.8330   18.4040 C   0  0  0  0  0  0  0  0  0  0  0  0
   47.2120   49.6240   17.6080 C   0  0  0  0  0  0  0  0  0  0  0  0
   47.5570   49.2150   16.1740 C   0  0  0  0  0  0  0  0  0  0  0  0
   48.3890   50.3170   15.5160 C   0  0  2  0  0  0  0  0  0  0  0  0
   48.7340   49.9080   14.0830 C   0  0  0  0  0  0  0  0  0  0  0  0
   49.6800   50.5260   16.3120 C   0  0  0  0  0  0  0  0  0  0  0  0
   50.5730   51.1350   18.5100 N   0  0  0  0  0  0  0  0  0  0  0  0
   50.6420   52.1010   18.7920 H   0  0  0  0  0  0  0  0  0  0  0  0
   51.7270   50.7860   17.6700 C   0  0  0  0  0  0  0  0  0  0  0  0
   50.5570   50.2760   19.7010 C   0  0  0  0  0  0  0  0  0  0  0  0
  1  7  1  0  0  0  0
  2  1  1  0  0  0  0
  3  1  1  0  0  0  0
  3  6  2  0  0  0  0
  4  3  1  0  0  0  0
  5  4  1  0  0  0  0
  7 11  1  0  0  0  0
  9  8  1  0  0  0  0
  9 13  2  0  0  0  0
 10  9  1  0  0  0  0
 11 10  2  0  0  0  0
 11 12  1  0  0  0  0
 12 13  1  0  0  0  0
 14  4  1  0  0  0  0
 15 14  1  6  0  0  0
 15 16  1  0  0  0  0
 15 22  1  0  0  0  0
 17 16  1  0  0  0  0
 18 17  1  0  0  0  0
 19 20  1  1  0  0  0
 19 18  1  0  0  0  0
 19 21  1  0  0  0  0
 21 15  1  0  0  0  0
 22 23  1  0  0  0  0
 22 25  1  0  0  0  0
 24 22  1  0  0  0  0
M  END
>  <MODEL>
9

>  <REMARK>
  Name = ZINC66187637
                            x       y       z     vdW  Elec       q    Type
                         _______ _______ _______ _____ _____    ______ ____

>  <TORSDO>
F 5

>  <minimizedAffinity>
-6.7979011373062841

$$$$
ZINC57884197
 OpenBabel10211216383D

 26 27  0  0  1  0  0  0  0  0999 V2000
   52.5200   51.0650   20.2560 C   0  0  0  0  0  0  0  0  0  0  0  0
   48.4400   49.9040   17.9930 N   0  0  0  0  0  0  0  0  0  0  0  0
   48.3320   50.8350   17.7450 H   0  0  0  0  0  0  0  0  0  0  0  0
   49.5080   49.5210   18.7210 C   0  0  0  0  0  0  0  0  0  0  0  0
   50.4260   50.4310   19.1020 N   0  0  0  0  0  0  0  0  0  0  0  0
   50.3180   51.3630   18.8540 H   0  0  0  0  0  0  0  0  0  0  0  0
   51.4940   50.0470   19.8290 C   0  0  0  0  0  0  0  0  0  0  0  0
   51.6290   48.8830   20.1400 O   0  0  0  0  0  0  0  0  0  0  0  0
   49.6440   48.3540   19.0320 O   0  0  0  0  0  0  0  0  0  0  0  0
   46.3810   49.5950   16.7110 C   0  0  0  0  0  0  0  0  0  0  0  0
   47.4430   48.9150   17.5780 C   0  0  0  0  0  0  0  0  0  0  0  0
   48.1270   47.8090   16.7720 C   0  0  0  0  0  0  0  0  0  0  0  0
   46.7790   48.3080   18.8160 C   0  0  0  0  0  0  0  0  0  0  0  0
   51.9300   52.4080   20.2020 N   0  0  0  0  0  0  0  0  0  0  0  0
   51.8410   52.9980   21.5450 C   0  0  0  0  0  0  0  0  0  0  0  0
   51.1690   54.3700   21.4530 C   0  0  0  0  0  0  0  0  0  0  0  0
   51.9520   55.2420   20.5680 N   0  0  0  0  0  0  0  0  0  0  0  0
   52.8880   55.3390   20.9330 H   0  0  0  0  0  0  0  0  0  0  0  0
   52.0110   54.6510   19.2240 C   0  0  0  0  0  0  0  0  0  0  0  0
   52.6910   53.2820   19.2970 C   0  0  0  0  0  0  0  0  0  0  0  0
   51.3160   56.5640   20.4940 C   0  0  0  0  0  0  0  0  0  0  0  0
   49.8960   56.4790   21.0570 C   0  0  2  0  0  0  0  0  0  0  0  0
   48.8740   56.8200   19.9520 C   0  0  0  0  0  0  0  0  0  0  0  0
   47.8170   57.6540   20.7280 C   0  0  0  0  0  0  0  0  0  0  0  0
   48.7170   58.3880   21.7540 C   0  0  0  0  0  0  0  0  0  0  0  0
   49.7330   57.4350   22.1110 O   0  0  0  0  0  0  0  0  0  0  0  0
  2  4  1  0  0  0  0
  3  2  1  0  0  0  0
  4  9  2  0  0  0  0
  4  5  1  0  0  0  0
  5  7  1  0  0  0  0
  6  5  1  0  0  0  0
  7  8  2  0  0  0  0
  7  1  1  0  0  0  0
 10 11  1  0  0  0  0
 11  2  1  0  0  0  0
 11 13  1  0  0  0  0
 12 11  1  0  0  0  0
 14  1  1  0  0  0  0
 14 15  1  0  0  0  0
 16 15  1  0  0  0  0
 17 18  1  0  0  0  0
 17 16  1  0  0  0  0
 19 20  1  0  0  0  0
 19 17  1  0  0  0  0
 20 14  1  0  0  0  0
 21 17  1  0  0  0  0
 22 21  1  6  0  0  0
 22 26  1  0  0  0  0
 23 24  1  0  0  0  0
 23 22  1  0  0  0  0
 24 25  1  0  0  0  0
 25 26  1  0  0  0  0
M  END
>  <MODEL>
1

>  <REMARK>
  Name = ZINC57884197
                            x       y       z     vdW  Elec       q    Type
                         _______ _______ _______ _____ _____    ______ ____

>  <TORSDO>
F 5

>  <minimizedAffinity>
-8.032429095044515

$$$$
ZINC57884197
 OpenBabel10211216383D

 26 27  0  0  1  0  0  0  0  0999 V2000
   51.3120   50.9640   17.9470 C   0  0  0  0  0  0  0  0  0  0  0  0
   47.2510   48.4780   18.6130 N   0  0  0  0  0  0  0  0  0  0  0  0
   47.5200   48.3150   19.5300 H   0  0  0  0  0  0  0  0  0  0  0  0
   48.0450   49.1980   17.7950 C   0  0  0  0  0  0  0  0  0  0  0  0
   49.2130   49.6920   18.2530 N   0  0  0  0  0  0  0  0  0  0  0  0
   49.4820   49.5290   19.1700 H   0  0  0  0  0  0  0  0  0  0  0  0
   50.0050   50.4120   17.4350 C   0  0  0  0  0  0  0  0  0  0  0  0
   49.6690   50.6150   16.2890 O   0  0  0  0  0  0  0  0  0  0  0  0
   47.7070   49.4020   16.6460 O   0  0  0  0  0  0  0  0  0  0  0  0
   46.2580   46.9000   17.0300 C   0  0  0  0  0  0  0  0  0  0  0  0
   45.9810   47.9420   18.1160 C   0  0  0  0  0  0  0  0  0  0  0  0
   45.2180   47.2870   19.2690 C   0  0  0  0  0  0  0  0  0  0  0  0
   45.1420   49.0800   17.5290 C   0  0  0  0  0  0  0  0  0  0  0  0
   51.0800   51.6840   19.2050 N   0  0  0  0  0  0  0  0  0  0  0  0
   52.2730   51.6400   20.0630 C   0  0  0  0  0  0  0  0  0  0  0  0
   51.9730   52.3490   21.3860 C   0  0  0  0  0  0  0  0  0  0  0  0
   51.5910   53.7420   21.1200 N   0  0  0  0  0  0  0  0  0  0  0  0
   52.3450   54.2110   20.6390 H   0  0  0  0  0  0  0  0  0  0  0  0
   50.3850   53.7700   20.2820 C   0  0  0  0  0  0  0  0  0  0  0  0
   50.6720   53.0730   18.9510 C   0  0  0  0  0  0  0  0  0  0  0  0
   51.3210   54.4270   22.3910 C   0  0  0  0  0  0  0  0  0  0  0  0
   51.8950   55.8440   22.3380 C   0  0  2  0  0  0  0  0  0  0  0  0
   50.7580   56.8610   22.1000 C   0  0  0  0  0  0  0  0  0  0  0  0
   51.4210   57.8730   21.1250 C   0  0  0  0  0  0  0  0  0  0  0  0
   52.3390   56.9330   20.3040 C   0  0  0  0  0  0  0  0  0  0  0  0
   52.8150   55.9560   21.2460 O   0  0  0  0  0  0  0  0  0  0  0  0
  1 14  1  0  0  0  0
  2  3  1  0  0  0  0
  4  5  1  0  0  0  0
  4  2  1  0  0  0  0
  5  6  1  0  0  0  0
  7  1  1  0  0  0  0
  7  5  1  0  0  0  0
  8  7  2  0  0  0  0
  9  4  2  0  0  0  0
 10 11  1  0  0  0  0
 11  2  1  0  0  0  0
 11 12  1  0  0  0  0
 13 11  1  0  0  0  0
 14 15  1  0  0  0  0
 15 16  1  0  0  0  0
 17 16  1  0  0  0  0
 17 21  1  0  0  0  0
 18 17  1  0  0  0  0
 19 17  1  0  0  0  0
 20 14  1  0  0  0  0
 20 19  1  0  0  0  0
 22 21  1  6  0  0  0
 23 22  1  0  0  0  0
 24 23  1  0  0  0  0
 25 24  1  0  0  0  0
 25 26  1  0  0  0  0
 26 22  1  0  0  0  0
M  END
>  <MODEL>
2

>  <REMARK>
  Name = ZINC57884197
                            x       y       z     vdW  Elec       q    Type
                         _______ _______ _______ _____ _____    ______ ____

>  <TORSDO>
F 5

>  <minimizedAffinity>
-7.8096240989587073

$$$$
ZINC57884197
 OpenBabel10211216383D

 26 27  0  0  1  0  0  0  0  0999 V2000
   52.5780   50.3370   20.4640 C   0  0  0  0  0  0  0  0  0  0  0  0
   49.3410   49.3530   17.0480 N   0  0  0  0  0  0  0  0  0  0  0  0
   49.9810   49.6440   16.3810 H   0  0  0  0  0  0  0  0  0  0  0  0
   49.6700   49.3840   18.3560 C   0  0  0  0  0  0  0  0  0  0  0  0
   50.8880   49.8190   18.7340 N   0  0  0  0  0  0  0  0  0  0  0  0
   51.5280   50.1100   18.0660 H   0  0  0  0  0  0  0  0  0  0  0  0
   51.2160   49.8500   20.0400 C   0  0  0  0  0  0  0  0  0  0  0  0
   50.4160   49.4860   20.8750 O   0  0  0  0  0  0  0  0  0  0  0  0
   48.8680   49.0180   19.1920 O   0  0  0  0  0  0  0  0  0  0  0  0
   46.9390   49.6920   17.3550 C   0  0  0  0  0  0  0  0  0  0  0  0
   48.0180   48.8780   16.6370 C   0  0  0  0  0  0  0  0  0  0  0  0
   47.8630   49.0480   15.1240 C   0  0  0  0  0  0  0  0  0  0  0  0
   47.8690   47.3990   17.0020 C   0  0  0  0  0  0  0  0  0  0  0  0
   52.6230   51.8020   20.3750 N   0  0  0  0  0  0  0  0  0  0  0  0
   52.4750   52.2490   18.9830 C   0  0  0  0  0  0  0  0  0  0  0  0
   52.5870   53.7740   18.9250 C   0  0  0  0  0  0  0  0  0  0  0  0
   51.5420   54.3750   19.7640 N   0  0  0  0  0  0  0  0  0  0  0  0
   50.6340   54.0810   19.4310 H   0  0  0  0  0  0  0  0  0  0  0  0
   51.7170   53.9390   21.1560 C   0  0  0  0  0  0  0  0  0  0  0  0
   51.5980   52.4150   21.2310 C   0  0  0  0  0  0  0  0  0  0  0  0
   51.6380   55.8390   19.6940 C   0  0  0  0  0  0  0  0  0  0  0  0
   52.3890   56.3600   20.9200 C   0  0  2  0  0  0  0  0  0  0  0  0
   51.7240   57.6560   21.4300 C   0  0  0  0  0  0  0  0  0  0  0  0
   52.9520   58.5190   21.8330 C   0  0  0  0  0  0  0  0  0  0  0  0
   53.9850   58.0780   20.7650 C   0  0  0  0  0  0  0  0  0  0  0  0
   53.7410   56.6740   20.5640 O   0  0  0  0  0  0  0  0  0  0  0  0
  2  4  1  0  0  0  0
  3  2  1  0  0  0  0
  4  5  1  0  0  0  0
  4  9  2  0  0  0  0
  5  7  1  0  0  0  0
  6  5  1  0  0  0  0
  7  1  1  0  0  0  0
  7  8  2  0  0  0  0
 11 13  1  0  0  0  0
 11  2  1  0  0  0  0
 11 10  1  0  0  0  0
 12 11  1  0  0  0  0
 14  1  1  0  0  0  0
 14 20  1  0  0  0  0
 15 14  1  0  0  0  0
 16 15  1  0  0  0  0
 16 17  1  0  0  0  0
 17 19  1  0  0  0  0
 18 17  1  0  0  0  0
 19 20  1  0  0  0  0
 21 17  1  0  0  0  0
 22 21  1  6  0  0  0
 22 23  1  0  0  0  0
 23 24  1  0  0  0  0
 25 24  1  0  0  0  0
 26 25  1  0  0  0  0
 26 22  1  0  0  0  0
M  END
>  <MODEL>
3

>  <REMARK>
  Name = ZINC57884197
                            x       y       z     vdW  Elec       q    Type
                         _______ _______ _______ _____ _____    ______ ____

>  <TORSDO>
F 5

>  <minimizedAffinity>
-7.5388008737793024

$$$$
ZINC57884197
 OpenBabel10211216383D

 26 27  0  0  1  0  0  0  0  0999 V2000
   51.8070   51.8580   19.5040 C   0  0  0  0  0  0  0  0  0  0  0  0
   48.8680   55.6250   20.0340 N   0  0  0  0  0  0  0  0  0  0  0  0
   48.2610   55.0600   20.5380 H   0  0  0  0  0  0  0  0  0  0  0  0
   50.0160   55.1130   19.5460 C   0  0  0  0  0  0  0  0  0  0  0  0
   50.3200   53.8170   19.7570 N   0  0  0  0  0  0  0  0  0  0  0  0
   49.7130   53.2530   20.2610 H   0  0  0  0  0  0  0  0  0  0  0  0
   51.4670   53.3070   19.2690 C   0  0  0  0  0  0  0  0  0  0  0  0
   52.2250   54.0130   18.6390 O   0  0  0  0  0  0  0  0  0  0  0  0
   50.7760   55.8220   18.9150 O   0  0  0  0  0  0  0  0  0  0  0  0
   47.2740   57.3940   20.5900 C   0  0  0  0  0  0  0  0  0  0  0  0
   48.5380   57.0340   19.8060 C   0  0  0  0  0  0  0  0  0  0  0  0
   49.6980   57.9120   20.2760 C   0  0  0  0  0  0  0  0  0  0  0  0
   48.2940   57.2650   18.3120 C   0  0  0  0  0  0  0  0  0  0  0  0
   50.6790   51.0160   19.0880 N   0  0  0  0  0  0  0  0  0  0  0  0
   50.6140   50.9080   17.6240 C   0  0  0  0  0  0  0  0  0  0  0  0
   49.3930   50.0740   17.2290 C   0  0  0  0  0  0  0  0  0  0  0  0
   49.4970   48.7380   17.8310 N   0  0  0  0  0  0  0  0  0  0  0  0
   50.3420   48.2900   17.5080 H   0  0  0  0  0  0  0  0  0  0  0  0
   49.5360   48.8600   19.2940 C   0  0  0  0  0  0  0  0  0  0  0  0
   50.7580   49.6840   19.7050 C   0  0  0  0  0  0  0  0  0  0  0  0
   48.3340   47.9320   17.4370 C   0  0  0  0  0  0  0  0  0  0  0  0
   47.0640   48.7740   17.5630 C   0  0  2  0  0  0  0  0  0  0  0  0
   46.0490   48.0570   18.4790 C   0  0  0  0  0  0  0  0  0  0  0  0
   44.7000   48.3430   17.7640 C   0  0  0  0  0  0  0  0  0  0  0  0
   45.1460   48.3320   16.2800 C   0  0  0  0  0  0  0  0  0  0  0  0
   46.4540   48.9290   16.2760 O   0  0  0  0  0  0  0  0  0  0  0  0
  2  3  1  0  0  0  0
  4  5  1  0  0  0  0
  4  2  1  0  0  0  0
  5  6  1  0  0  0  0
  7  1  1  0  0  0  0
  7  5  1  0  0  0  0
  8  7  2  0  0  0  0
  9  4  2  0  0  0  0
 11  2  1  0  0  0  0
 11 12  1  0  0  0  0
 11 10  1  0  0  0  0
 13 11  1  0  0  0  0
 14  1  1  0  0  0  0
 14 20  1  0  0  0  0
 15 14  1  0  0  0  0
 16 15  1  0  0  0  0
 16 17  1  0  0  0  0
 17 19  1  0  0  0  0
 18 17  1  0  0  0  0
 19 20  1  0  0  0  0
 21 17  1  0  0  0  0
 22 21  1  6  0  0  0
 22 23  1  0  0  0  0
 24 23  1  0  0  0  0
 25 24  1  0  0  0  0
 26 25  1  0  0  0  0
 26 22  1  0  0  0  0
M  END
>  <MODEL>
4

>  <REMARK>
  Name = ZINC57884197
                            x       y       z     vdW  Elec       q    Type
                         _______ _______ _______ _____ _____    ______ ____

>  <TORSDO>
F 5

>  <minimizedAffinity>
-7.321004360416179

$$$$
ZINC57884197
 OpenBabel10211216383D

 26 27  0  0  1  0  0  0  0  0999 V2000
   52.1460   51.5500   18.0340 C   0  0  0  0  0  0  0  0  0  0  0  0
   50.3870   55.2900   20.4900 N   0  0  0  0  0  0  0  0  0  0  0  0
   49.5010   54.9010   20.4160 H   0  0  0  0  0  0  0  0  0  0  0  0
   51.4470   54.6580   19.9470 C   0  0  0  0  0  0  0  0  0  0  0  0
   51.2760   53.4880   19.3000 N   0  0  0  0  0  0  0  0  0  0  0  0
   50.3900   53.1000   19.2260 H   0  0  0  0  0  0  0  0  0  0  0  0
   52.3360   52.8580   18.7570 C   0  0  0  0  0  0  0  0  0  0  0  0
   53.4430   53.3430   18.8500 O   0  0  0  0  0  0  0  0  0  0  0  0
   52.5570   55.1450   20.0400 O   0  0  0  0  0  0  0  0  0  0  0  0
   51.2710   56.3050   22.5310 C   0  0  0  0  0  0  0  0  0  0  0  0
   50.5720   56.5610   21.1940 C   0  0  0  0  0  0  0  0  0  0  0  0
   51.4300   57.4960   20.3400 C   0  0  0  0  0  0  0  0  0  0  0  0
   49.2080   57.2080   21.4470 C   0  0  0  0  0  0  0  0  0  0  0  0
   50.8040   51.0240   18.3170 N   0  0  0  0  0  0  0  0  0  0  0  0
   50.0700   50.7570   17.0720 C   0  0  0  0  0  0  0  0  0  0  0  0
   48.6590   50.2680   17.4100 C   0  0  0  0  0  0  0  0  0  0  0  0
   48.7460   49.0450   18.2190 N   0  0  0  0  0  0  0  0  0  0  0  0
   49.2440   48.3350   17.7030 H   0  0  0  0  0  0  0  0  0  0  0  0
   49.4600   49.3320   19.4700 C   0  0  0  0  0  0  0  0  0  0  0  0
   50.8770   49.8140   19.1490 C   0  0  0  0  0  0  0  0  0  0  0  0
   47.3920   48.5650   18.5270 C   0  0  0  0  0  0  0  0  0  0  0  0
   46.5420   48.5830   17.2560 C   0  0  2  0  0  0  0  0  0  0  0  0
   45.0440   48.5830   17.6270 C   0  0  0  0  0  0  0  0  0  0  0  0
   44.4380   47.6390   16.5510 C   0  0  0  0  0  0  0  0  0  0  0  0
   45.5960   46.6270   16.3620 C   0  0  0  0  0  0  0  0  0  0  0  0
   46.8000   47.4060   16.4820 O   0  0  0  0  0  0  0  0  0  0  0  0
  1 14  1  0  0  0  0
  1  7  1  0  0  0  0
  2 11  1  0  0  0  0
  3  2  1  0  0  0  0
  4  9  2  0  0  0  0
  4  2  1  0  0  0  0
  5  4  1  0  0  0  0
  6  5  1  0  0  0  0
  7  8  2  0  0  0  0
  7  5  1  0  0  0  0
 11 13  1  0  0  0  0
 11 10  1  0  0  0  0
 12 11  1  0  0  0  0
 14 20  1  0  0  0  0
 15 16  1  0  0  0  0
 15 14  1  0  0  0  0
 16 17  1  0  0  0  0
 17 21  1  0  0  0  0
 17 19  1  0  0  0  0
 18 17  1  0  0  0  0
 20 19  1  0  0  0  0
 22 23  1  0  0  0  0
 22 21  1  1  0  0  0
 24 23  1  0  0  0  0
 25 26  1  0  0  0  0
 25 24  1  0  0  0  0
 26 22  1  0  0  0  0
M  END
>  <MODEL>
5

>  <REMARK>
  Name = ZINC57884197
                            x       y       z     vdW  Elec       q    Type
                         _______ _______ _______ _____ _____    ______ ____

>  <TORSDO>
F 5

>  <minimizedAffinity>
-7.175886962141532

$$$$
ZINC57884197
 OpenBabel10211216383D

 26 27  0  0  1  0  0  0  0  0999 V2000
   51.5850   50.0860   19.1570 C   0  0  0  0  0  0  0  0  0  0  0  0
   48.0060   48.8660   16.1870 N   0  0  0  0  0  0  0  0  0  0  0  0
   48.4590   49.3390   15.4730 H   0  0  0  0  0  0  0  0  0  0  0  0
   48.5510   48.8240   17.4200 C   0  0  0  0  0  0  0  0  0  0  0  0
   49.7270   49.4400   17.6580 N   0  0  0  0  0  0  0  0  0  0  0  0
   50.1800   49.9130   16.9420 H   0  0  0  0  0  0  0  0  0  0  0  0
   50.2710   49.3970   18.8890 C   0  0  0  0  0  0  0  0  0  0  0  0
   49.7040   48.8070   19.7830 O   0  0  0  0  0  0  0  0  0  0  0  0
   47.9830   48.2310   18.3150 O   0  0  0  0  0  0  0  0  0  0  0  0
   45.6230   48.8770   16.7360 C   0  0  0  0  0  0  0  0  0  0  0  0
   46.7300   48.1960   15.9280 C   0  0  0  0  0  0  0  0  0  0  0  0
   46.4010   48.2860   14.4360 C   0  0  0  0  0  0  0  0  0  0  0  0
   46.8320   46.7260   16.3400 C   0  0  0  0  0  0  0  0  0  0  0  0
   51.3410   51.3490   19.8650 N   0  0  0  0  0  0  0  0  0  0  0  0
   51.1670   51.1180   21.3060 C   0  0  0  0  0  0  0  0  0  0  0  0
   50.8560   52.4470   21.9990 C   0  0  0  0  0  0  0  0  0  0  0  0
   51.9580   53.3900   21.7670 N   0  0  0  0  0  0  0  0  0  0  0  0
   52.8160   53.0010   22.1310 H   0  0  0  0  0  0  0  0  0  0  0  0
   52.1040   53.6300   20.3250 C   0  0  0  0  0  0  0  0  0  0  0  0
   52.4250   52.3110   19.6180 C   0  0  0  0  0  0  0  0  0  0  0  0
   51.6690   54.6590   22.4470 C   0  0  0  0  0  0  0  0  0  0  0  0
   51.5450   55.7770   21.4100 C   0  0  2  0  0  0  0  0  0  0  0  0
   52.4230   56.9760   21.8260 C   0  0  0  0  0  0  0  0  0  0  0  0
   51.5300   58.1880   21.4390 C   0  0  0  0  0  0  0  0  0  0  0  0
   50.1180   57.6170   21.7270 C   0  0  0  0  0  0  0  0  0  0  0  0
   50.1880   56.2320   21.3450 O   0  0  0  0  0  0  0  0  0  0  0  0
  1 14  1  0  0  0  0
  2  4  1  0  0  0  0
  3  2  1  0  0  0  0
  4  5  1  0  0  0  0
  4  9  2  0  0  0  0
  5  7  1  0  0  0  0
  6  5  1  0  0  0  0
  7  1  1  0  0  0  0
  7  8  2  0  0  0  0
 11  2  1  0  0  0  0
 11 13  1  0  0  0  0
 11 10  1  0  0  0  0
 12 11  1  0  0  0  0
 14 15  1  0  0  0  0
 15 16  1  0  0  0  0
 17 16  1  0  0  0  0
 17 18  1  0  0  0  0
 17 21  1  0  0  0  0
 19 17  1  0  0  0  0
 20 14  1  0  0  0  0
 20 19  1  0  0  0  0
 22 23  1  0  0  0  0
 22 21  1  1  0  0  0
 24 25  1  0  0  0  0
 24 23  1  0  0  0  0
 26 22  1  0  0  0  0
 26 25  1  0  0  0  0
M  END
>  <MODEL>
6

>  <REMARK>
  Name = ZINC57884197
                            x       y       z     vdW  Elec       q    Type
                         _______ _______ _______ _____ _____    ______ ____

>  <TORSDO>
F 5

>  <minimizedAffinity>
-7.1717727578794923

$$$$
ZINC57884197
 OpenBabel10211216383D

 26 27  0  0  1  0  0  0  0  0999 V2000
   52.5620   50.4480   20.1130 C   0  0  0  0  0  0  0  0  0  0  0  0
   52.1480   55.2110   20.6240 N   0  0  0  0  0  0  0  0  0  0  0  0
   52.7540   55.3270   19.8750 H   0  0  0  0  0  0  0  0  0  0  0  0
   51.8160   53.9710   21.0350 C   0  0  0  0  0  0  0  0  0  0  0  0
   52.3250   52.8930   20.4050 N   0  0  0  0  0  0  0  0  0  0  0  0
   52.9310   53.0100   19.6560 H   0  0  0  0  0  0  0  0  0  0  0  0
   51.9920   51.6540   20.8160 C   0  0  0  0  0  0  0  0  0  0  0  0
   51.2360   51.5080   21.7520 O   0  0  0  0  0  0  0  0  0  0  0  0
   51.0570   53.8250   21.9720 O   0  0  0  0  0  0  0  0  0  0  0  0
   50.1010   56.4950   20.9940 C   0  0  0  0  0  0  0  0  0  0  0  0
   51.5940   56.3820   21.3070 C   0  0  0  0  0  0  0  0  0  0  0  0
   51.7900   56.2320   22.8160 C   0  0  0  0  0  0  0  0  0  0  0  0
   52.3130   57.6440   20.8220 C   0  0  0  0  0  0  0  0  0  0  0  0
   51.5550   49.8920   19.2010 N   0  0  0  0  0  0  0  0  0  0  0  0
   50.5510   49.1120   19.9390 C   0  0  0  0  0  0  0  0  0  0  0  0
   49.5560   48.5010   18.9500 C   0  0  0  0  0  0  0  0  0  0  0  0
   48.9030   49.5720   18.1860 N   0  0  0  0  0  0  0  0  0  0  0  0
   48.4230   50.1930   18.8210 H   0  0  0  0  0  0  0  0  0  0  0  0
   49.9160   50.3270   17.4350 C   0  0  0  0  0  0  0  0  0  0  0  0
   50.9140   50.9530   18.4120 C   0  0  0  0  0  0  0  0  0  0  0  0
   47.9350   48.9870   17.2490 C   0  0  0  0  0  0  0  0  0  0  0  0
   46.5200   49.1640   17.8020 C   0  0  2  0  0  0  0  0  0  0  0  0
   46.1830   48.0020   18.7620 C   0  0  0  0  0  0  0  0  0  0  0  0
   44.6950   47.7140   18.4200 C   0  0  0  0  0  0  0  0  0  0  0  0
   44.6780   48.0170   16.9000 C   0  0  0  0  0  0  0  0  0  0  0  0
   45.5710   49.1320   16.7300 O   0  0  0  0  0  0  0  0  0  0  0  0
  1  7  1  0  0  0  0
  2  4  1  0  0  0  0
  2 11  1  0  0  0  0
  3  2  1  0  0  0  0
  4  9  2  0  0  0  0
  5  7  1  0  0  0  0
  5  4  1  0  0  0  0
  6  5  1  0  0  0  0
  7  8  2  0  0  0  0
 10 11  1  0  0  0  0
 11 12  1  0  0  0  0
 13 11  1  0  0  0  0
 14 15  1  0  0  0  0
 14  1  1  0  0  0  0
 16 15  1  0  0  0  0
 17 18  1  0  0  0  0
 17 16  1  0  0  0  0
 19 17  1  0  0  0  0
 19 20  1  0  0  0  0
 20 14  1  0  0  0  0
 21 17  1  0  0  0  0
 22 21  1  6  0  0  0
 22 23  1  0  0  0  0
 24 23  1  0  0  0  0
 25 24  1  0  0  0  0
 26 25  1  0  0  0  0
 26 22  1  0  0  0  0
M  END
>  <MODEL>
7

>  <REMARK>
  Name = ZINC57884197
                            x       y       z     vdW  Elec       q    Type
                         _______ _______ _______ _____ _____    ______ ____

>  <TORSDO>
F 5

>  <minimizedAffinity>
-7.1647227325255649

$$$$
ZINC57884197
 OpenBabel10211216383D

 26 27  0  0  1  0  0  0  0  0999 V2000
   49.8590   49.1790   19.0280 C   0  0  0  0  0  0  0  0  0  0  0  0
   46.7070   46.7530   16.3270 N   0  0  0  0  0  0  0  0  0  0  0  0
   47.2330   45.9500   16.4640 H   0  0  0  0  0  0  0  0  0  0  0  0
   47.0970   47.9160   16.8860 C   0  0  0  0  0  0  0  0  0  0  0  0
   48.2170   47.9630   17.6340 N   0  0  0  0  0  0  0  0  0  0  0  0
   48.7430   47.1590   17.7700 H   0  0  0  0  0  0  0  0  0  0  0  0
   48.6060   49.1260   18.1920 C   0  0  0  0  0  0  0  0  0  0  0  0
   47.9490   50.1300   18.0210 O   0  0  0  0  0  0  0  0  0  0  0  0
   46.4370   48.9230   16.7150 O   0  0  0  0  0  0  0  0  0  0  0  0
   45.7010   47.4990   14.2270 C   0  0  0  0  0  0  0  0  0  0  0  0
   45.4890   46.7010   15.5150 C   0  0  0  0  0  0  0  0  0  0  0  0
   45.1680   45.2470   15.1690 C   0  0  0  0  0  0  0  0  0  0  0  0
   44.3250   47.3070   16.3030 C   0  0  0  0  0  0  0  0  0  0  0  0
   50.2050   50.5790   19.3040 N   0  0  0  0  0  0  0  0  0  0  0  0
   50.9430   50.6990   20.5700 C   0  0  0  0  0  0  0  0  0  0  0  0
   51.2320   52.1750   20.8510 C   0  0  0  0  0  0  0  0  0  0  0  0
   52.0230   52.7370   19.7480 N   0  0  0  0  0  0  0  0  0  0  0  0
   52.8890   52.2250   19.6600 H   0  0  0  0  0  0  0  0  0  0  0  0
   51.2640   52.6330   18.4950 C   0  0  0  0  0  0  0  0  0  0  0  0
   50.9740   51.1610   18.1950 C   0  0  0  0  0  0  0  0  0  0  0  0
   52.3170   54.1500   20.0270 C   0  0  0  0  0  0  0  0  0  0  0  0
   51.3920   54.6540   21.1360 C   0  0  2  0  0  0  0  0  0  0  0  0
   50.3650   55.6470   20.5500 C   0  0  0  0  0  0  0  0  0  0  0  0
   50.2740   56.7230   21.6680 C   0  0  0  0  0  0  0  0  0  0  0  0
   51.7310   56.7230   22.1950 C   0  0  0  0  0  0  0  0  0  0  0  0
   52.1560   55.3510   22.1270 O   0  0  0  0  0  0  0  0  0  0  0  0
  1 14  1  0  0  0  0
  2  3  1  0  0  0  0
  2  4  1  0  0  0  0
  4  5  1  0  0  0  0
  5  6  1  0  0  0  0
  5  7  1  0  0  0  0
  7  1  1  0  0  0  0
  8  7  2  0  0  0  0
  9  4  2  0  0  0  0
 10 11  1  0  0  0  0
 11 13  1  0  0  0  0
 11  2  1  0  0  0  0
 12 11  1  0  0  0  0
 14 15  1  0  0  0  0
 15 16  1  0  0  0  0
 17 21  1  0  0  0  0
 17 16  1  0  0  0  0
 18 17  1  0  0  0  0
 19 17  1  0  0  0  0
 20 19  1  0  0  0  0
 20 14  1  0  0  0  0
 22 21  1  6  0  0  0
 22 26  1  0  0  0  0
 23 22  1  0  0  0  0
 23 24  1  0  0  0  0
 24 25  1  0  0  0  0
 26 25  1  0  0  0  0
M  END
>  <MODEL>
8

>  <REMARK>
  Name = ZINC57884197
                            x       y       z     vdW  Elec       q    Type
                         _______ _______ _______ _____ _____    ______ ____

>  <TORSDO>
F 5

>  <minimizedAffinity>
-6.9336239778003268

$$$$
ZINC57884197
 OpenBabel10211216383D

 26 27  0  0  1  0  0  0  0  0999 V2000
   51.0790   51.1280   17.7680 C   0  0  0  0  0  0  0  0  0  0  0  0
   46.9970   49.0730   16.2740 N   0  0  0  0  0  0  0  0  0  0  0  0
   47.0600   49.5840   15.4530 H   0  0  0  0  0  0  0  0  0  0  0  0
   47.9440   49.2070   17.2250 C   0  0  0  0  0  0  0  0  0  0  0  0
   48.9780   50.0510   17.0320 N   0  0  0  0  0  0  0  0  0  0  0  0
   49.0400   50.5620   16.2100 H   0  0  0  0  0  0  0  0  0  0  0  0
   49.9240   50.1840   17.9820 C   0  0  0  0  0  0  0  0  0  0  0  0
   49.8450   49.5460   19.0100 O   0  0  0  0  0  0  0  0  0  0  0  0
   47.8660   48.5660   18.2540 O   0  0  0  0  0  0  0  0  0  0  0  0
   45.0340   48.0820   15.2060 C   0  0  0  0  0  0  0  0  0  0  0  0
   45.8750   48.1550   16.4820 C   0  0  0  0  0  0  0  0  0  0  0  0
   46.4100   46.7630   16.8220 C   0  0  0  0  0  0  0  0  0  0  0  0
   45.0070   48.6640   17.6360 C   0  0  0  0  0  0  0  0  0  0  0  0
   51.0930   52.1350   18.8360 N   0  0  0  0  0  0  0  0  0  0  0  0
   52.1930   53.0910   18.6440 C   0  0  0  0  0  0  0  0  0  0  0  0
   52.2090   54.0870   19.8060 C   0  0  0  0  0  0  0  0  0  0  0  0
   50.9250   54.7970   19.8610 N   0  0  0  0  0  0  0  0  0  0  0  0
   50.7730   55.2840   18.9890 H   0  0  0  0  0  0  0  0  0  0  0  0
   49.8380   53.8330   20.0780 C   0  0  0  0  0  0  0  0  0  0  0  0
   49.8030   52.8350   18.9180 C   0  0  0  0  0  0  0  0  0  0  0  0
   50.9480   55.7660   20.9650 C   0  0  0  0  0  0  0  0  0  0  0  0
   50.2380   57.0500   20.5310 C   0  0  2  0  0  0  0  0  0  0  0  0
   49.3670   57.5830   21.6890 C   0  0  0  0  0  0  0  0  0  0  0  0
   48.0990   58.0840   20.9440 C   0  0  0  0  0  0  0  0  0  0  0  0
   48.0080   57.0500   19.7920 C   0  0  0  0  0  0  0  0  0  0  0  0
   49.3710   56.7760   19.4240 O   0  0  0  0  0  0  0  0  0  0  0  0
  1  7  1  0  0  0  0
  1 14  1  0  0  0  0
  2 11  1  0  0  0  0
  2  4  1  0  0  0  0
  3  2  1  0  0  0  0
  4  9  2  0  0  0  0
  5  4  1  0  0  0  0
  5  7  1  0  0  0  0
  6  5  1  0  0  0  0
  7  8  2  0  0  0  0
 10 11  1  0  0  0  0
 11 12  1  0  0  0  0
 11 13  1  0  0  0  0
 14 20  1  0  0  0  0
 15 14  1  0  0  0  0
 15 16  1  0  0  0  0
 16 17  1  0  0  0  0
 17 19  1  0  0  0  0
 17 21  1  0  0  0  0
 18 17  1  0  0  0  0
 20 19  1  0  0  0  0
 22 21  1  1  0  0  0
 22 23  1  0  0  0  0
 24 23  1  0  0  0  0
 25 24  1  0  0  0  0
 26 25  1  0  0  0  0
 26 22  1  0  0  0  0
M  END
>  <MODEL>
9

>  <REMARK>
  Name = ZINC57884197
                            x       y       z     vdW  Elec       q    Type
                         _______ _______ _______ _____ _____    ______ ____

>  <TORSDO>
F 5

>  <minimizedAffinity>
-6.9056845788777448

$$$$
ZINC67644301
 OpenBabel10211216403D

 27 28  0  0  1  0  0  0  0  0999 V2000
   49.8000   52.0430   17.4080 N   0  0  0  0  0  0  0  0  0  0  0  0
   49.4210   52.4010   16.5900 H   0  0  0  0  0  0  0  0  0  0  0  0
   49.9950   52.8490   18.4700 C   0  0  0  0  0  0  0  0  0  0  0  0
   49.6640   54.1530   18.3950 N   0  0  0  0  0  0  0  0  0  0  0  0
   49.2850   54.5120   17.5770 H   0  0  0  0  0  0  0  0  0  0  0  0
   50.4700   52.4000   19.4950 O   0  0  0  0  0  0  0  0  0  0  0  0
   49.8750   55.0300   19.5500 C   0  0  2  0  0  0  0  0  0  0  0  0
   48.6620   55.9460   19.7260 C   0  0  0  0  0  0  0  0  0  0  0  0
   48.8680   56.8390   20.9520 C   0  0  0  0  0  0  0  0  0  0  0  0
   50.1070   57.7140   20.7370 C   0  0  0  0  0  0  0  0  0  0  0  0
   51.2510   56.8460   20.4240 N   0  0  0  0  0  0  0  0  0  0  0  0
   51.1270   55.8840   19.3210 C   0  0  0  0  0  0  0  0  0  0  0  0
   52.6530   56.9500   21.2990 S   0  0  0  0  0  0  0  0  0  0  0  0
   52.8140   58.7070   21.7160 C   0  0  0  0  0  0  0  0  0  0  0  0
   53.6760   56.5670   20.3900 O   0  0  0  0  0  0  0  0  0  0  0  0
   52.4050   56.1880   22.4730 O   0  0  0  0  0  0  0  0  0  0  0  0
   50.1600   50.6250   17.4880 C   0  0  0  0  0  0  0  0  0  0  0  0
   49.3010   49.8240   16.5080 C   0  0  2  0  0  0  0  0  0  0  0  0
   49.0900   50.6380   15.2300 C   0  0  0  0  0  0  0  0  0  0  0  0
   44.8150   48.0440   15.6940 C   0  0  0  0  0  0  0  0  0  0  0  0
   45.7330   48.6840   16.7370 C   0  0  1  0  0  0  0  0  0  0  0  0
   45.8670   47.7500   17.9440 C   0  0  0  0  0  0  0  0  0  0  0  0
   46.8490   48.3630   18.9450 C   0  0  0  0  0  0  0  0  0  0  0  0
   48.1910   48.6090   18.2510 C   0  0  0  0  0  0  0  0  0  0  0  0
   48.0000   49.5300   17.1240 N   0  0  0  0  0  0  0  0  0  0  0  0
   47.5860   50.3880   17.4570 H   0  0  0  0  0  0  0  0  0  0  0  0
   47.1150   48.9190   16.1250 C   0  0  0  0  0  0  0  0  0  0  0  0
  1 17  1  0  0  0  0
  1  3  1  0  0  0  0
  2  1  1  0  0  0  0
  3  6  2  0  0  0  0
  4  3  1  0  0  0  0
  5  4  1  0  0  0  0
  7  4  1  6  0  0  0
  7  8  1  0  0  0  0
  8  9  1  0  0  0  0
 10  9  1  0  0  0  0
 11 10  1  0  0  0  0
 11 13  1  0  0  0  0
 12  7  1  0  0  0  0
 12 11  1  0  0  0  0
 13 14  1  0  0  0  0
 13 16  2  0  0  0  0
 15 13  2  0  0  0  0
 18 19  1  1  0  0  0
 18 25  1  0  0  0  0
 18 17  1  0  0  0  0
 21 20  1  6  0  0  0
 21 22  1  0  0  0  0
 22 23  1  0  0  0  0
 24 23  1  0  0  0  0
 25 26  1  0  0  0  0
 25 24  1  0  0  0  0
 27 21  1  0  0  0  0
 27 25  1  0  0  0  0
M  END
>  <MODEL>
1

>  <REMARK>
  Name = ZINC67644301
                            x       y       z     vdW  Elec       q    Type
                         _______ _______ _______ _____ _____    ______ ____

>  <TORSDO>
F 5

>  <minimizedAffinity>
-8.4236156960932966

$$$$
ZINC67644301
 OpenBabel10211216403D

 27 28  0  0  1  0  0  0  0  0999 V2000
   51.0410   50.4620   17.8180 N   0  0  0  0  0  0  0  0  0  0  0  0
   51.6690   49.7410   17.6590 H   0  0  0  0  0  0  0  0  0  0  0  0
   49.7160   50.2370   17.7210 C   0  0  0  0  0  0  0  0  0  0  0  0
   49.2640   49.0090   17.4030 N   0  0  0  0  0  0  0  0  0  0  0  0
   49.8910   48.2860   17.2440 H   0  0  0  0  0  0  0  0  0  0  0  0
   48.9290   51.1420   17.9200 O   0  0  0  0  0  0  0  0  0  0  0  0
   47.8230   48.7630   17.2980 C   0  0  2  0  0  0  0  0  0  0  0  0
   47.2610   48.4160   18.6780 C   0  0  0  0  0  0  0  0  0  0  0  0
   45.7500   48.1930   18.5760 C   0  0  0  0  0  0  0  0  0  0  0  0
   45.4770   47.0160   17.6340 C   0  0  0  0  0  0  0  0  0  0  0  0
   46.1380   47.2760   16.3460 N   0  0  0  0  0  0  0  0  0  0  0  0
   47.5720   47.5940   16.3400 C   0  0  0  0  0  0  0  0  0  0  0  0
   45.2810   47.2150   14.9310 S   0  0  0  0  0  0  0  0  0  0  0  0
   44.9290   45.4550   14.6750 C   0  0  0  0  0  0  0  0  0  0  0  0
   46.1860   47.6830   13.9390 O   0  0  0  0  0  0  0  0  0  0  0  0
   44.0780   47.9210   15.2040 O   0  0  0  0  0  0  0  0  0  0  0  0
   51.5340   51.7980   18.1640 C   0  0  0  0  0  0  0  0  0  0  0  0
   52.6590   51.6770   19.1930 C   0  0  2  0  0  0  0  0  0  0  0  0
   52.5300   50.3470   19.9370 C   0  0  0  0  0  0  0  0  0  0  0  0
   51.7280   56.4580   19.6840 C   0  0  0  0  0  0  0  0  0  0  0  0
   52.1480   55.1850   20.4230 C   0  0  1  0  0  0  0  0  0  0  0  0
   51.1490   54.8930   21.5460 C   0  0  0  0  0  0  0  0  0  0  0  0
   51.5320   53.5770   22.2280 C   0  0  0  0  0  0  0  0  0  0  0  0
   51.5740   52.4600   21.1820 C   0  0  0  0  0  0  0  0  0  0  0  0
   52.5670   52.7870   20.1510 N   0  0  0  0  0  0  0  0  0  0  0  0
   53.4670   52.9300   20.5850 H   0  0  0  0  0  0  0  0  0  0  0  0
   52.1680   54.0100   19.4440 C   0  0  0  0  0  0  0  0  0  0  0  0
  1 17  1  0  0  0  0
  2  1  1  0  0  0  0
  3  1  1  0  0  0  0
  3  6  2  0  0  0  0
  4  3  1  0  0  0  0
  5  4  1  0  0  0  0
  7  4  1  1  0  0  0
  7  8  1  0  0  0  0
  9  8  1  0  0  0  0
 10  9  1  0  0  0  0
 11 10  1  0  0  0  0
 12 11  1  0  0  0  0
 12  7  1  0  0  0  0
 13 16  2  0  0  0  0
 13 11  1  0  0  0  0
 14 13  1  0  0  0  0
 15 13  2  0  0  0  0
 18 17  1  1  0  0  0
 18 19  1  0  0  0  0
 18 25  1  0  0  0  0
 21 20  1  6  0  0  0
 21 22  1  0  0  0  0
 22 23  1  0  0  0  0
 24 23  1  0  0  0  0
 25 26  1  0  0  0  0
 25 24  1  0  0  0  0
 27 25  1  0  0  0  0
 27 21  1  0  0  0  0
M  END
>  <MODEL>
2

>  <REMARK>
  Name = ZINC67644301
                            x       y       z     vdW  Elec       q    Type
                         _______ _______ _______ _____ _____    ______ ____

>  <TORSDO>
F 5

>  <minimizedAffinity>
-8.0118439497877603

$$$$
ZINC67644301
 OpenBabel10211216403D

 27 28  0  0  1  0  0  0  0  0999 V2000
   52.0250   54.1160   20.9490 N   0  0  0  0  0  0  0  0  0  0  0  0
   52.9500   53.8820   20.7780 H   0  0  0  0  0  0  0  0  0  0  0  0
   51.0330   53.3220   20.4980 C   0  0  0  0  0  0  0  0  0  0  0  0
   51.3280   52.2030   19.8090 N   0  0  0  0  0  0  0  0  0  0  0  0
   52.2540   51.9690   19.6360 H   0  0  0  0  0  0  0  0  0  0  0  0
   49.8730   53.6160   20.7130 O   0  0  0  0  0  0  0  0  0  0  0  0
   50.2510   51.3400   19.3180 C   0  0  2  0  0  0  0  0  0  0  0  0
   50.5010   49.9010   19.7750 C   0  0  0  0  0  0  0  0  0  0  0  0
   49.3590   49.0040   19.2920 C   0  0  0  0  0  0  0  0  0  0  0  0
   49.3140   49.0240   17.7600 C   0  0  0  0  0  0  0  0  0  0  0  0
   49.2190   50.4190   17.3080 N   0  0  0  0  0  0  0  0  0  0  0  0
   50.2140   51.3870   17.7870 C   0  0  0  0  0  0  0  0  0  0  0  0
   48.0110   50.8910   16.2780 S   0  0  0  0  0  0  0  0  0  0  0  0
   48.3870   50.0650   14.7080 C   0  0  0  0  0  0  0  0  0  0  0  0
   48.1780   52.2960   16.1440 O   0  0  0  0  0  0  0  0  0  0  0  0
   46.8230   50.3540   16.8430 O   0  0  0  0  0  0  0  0  0  0  0  0
   51.7040   55.3330   21.7000 C   0  0  0  0  0  0  0  0  0  0  0  0
   52.0040   56.5590   20.8360 C   0  0  2  0  0  0  0  0  0  0  0  0
   53.1660   57.3440   21.4480 C   0  0  0  0  0  0  0  0  0  0  0  0
   47.8180   57.4010   18.4420 C   0  0  0  0  0  0  0  0  0  0  0  0
   48.7320   57.8880   19.5680 C   0  0  1  0  0  0  0  0  0  0  0  0
   47.9570   57.8940   20.8890 C   0  0  0  0  0  0  0  0  0  0  0  0
   48.9010   58.3080   22.0210 C   0  0  0  0  0  0  0  0  0  0  0  0
   50.0990   57.3550   22.0540 C   0  0  0  0  0  0  0  0  0  0  0  0
   50.8120   57.4160   20.7730 N   0  0  0  0  0  0  0  0  0  0  0  0
   51.0930   58.3680   20.5900 H   0  0  0  0  0  0  0  0  0  0  0  0
   49.9350   56.9530   19.6910 C   0  0  0  0  0  0  0  0  0  0  0  0
  1 17  1  0  0  0  0
  2  1  1  0  0  0  0
  3  6  2  0  0  0  0
  3  1  1  0  0  0  0
  4  3  1  0  0  0  0
  5  4  1  0  0  0  0
  7  8  1  0  0  0  0
  7  4  1  6  0  0  0
  9  8  1  0  0  0  0
 10  9  1  0  0  0  0
 11 10  1  0  0  0  0
 11 12  1  0  0  0  0
 12  7  1  0  0  0  0
 13 16  2  0  0  0  0
 13 11  1  0  0  0  0
 14 13  1  0  0  0  0
 15 13  2  0  0  0  0
 18 25  1  1  0  0  0
 18 19  1  0  0  0  0
 18 17  1  0  0  0  0
 21 20  1  1  0  0  0
 21 27  1  0  0  0  0
 21 22  1  0  0  0  0
 22 23  1  0  0  0  0
 23 24  1  0  0  0  0
 25 24  1  0  0  0  0
 26 25  1  0  0  0  0
 27 25  1  0  0  0  0
M  END
>  <MODEL>
3

>  <REMARK>
  Name = ZINC67644301
                            x       y       z     vdW  Elec       q    Type
                         _______ _______ _______ _____ _____    ______ ____

>  <TORSDO>
F 5

>  <minimizedAffinity>
-7.9523822981036911

$$$$
ZINC67644301
 OpenBabel10211216403D

 27 28  0  0  1  0  0  0  0  0999 V2000
   51.2280   53.1940   18.6610 N   0  0  0  0  0  0  0  0  0  0  0  0
   50.8110   54.0000   18.3180 H   0  0  0  0  0  0  0  0  0  0  0  0
   50.7950   51.9850   18.2520 C   0  0  0  0  0  0  0  0  0  0  0  0
   49.7850   51.8960   17.3660 N   0  0  0  0  0  0  0  0  0  0  0  0
   49.3670   52.7020   17.0220 H   0  0  0  0  0  0  0  0  0  0  0  0
   51.3180   50.9750   18.6820 O   0  0  0  0  0  0  0  0  0  0  0  0
   49.3150   50.5810   16.9200 C   0  0  2  0  0  0  0  0  0  0  0  0
   49.8400   50.3010   15.5110 C   0  0  0  0  0  0  0  0  0  0  0  0
   49.3780   48.9140   15.0580 C   0  0  0  0  0  0  0  0  0  0  0  0
   47.8470   48.8800   15.0180 C   0  0  0  0  0  0  0  0  0  0  0  0
   47.3300   49.2890   16.3320 N   0  0  0  0  0  0  0  0  0  0  0  0
   47.7820   50.5650   16.9030 C   0  0  0  0  0  0  0  0  0  0  0  0
   46.2590   48.3310   17.1530 S   0  0  0  0  0  0  0  0  0  0  0  0
   46.7000   46.6340   16.6900 C   0  0  0  0  0  0  0  0  0  0  0  0
   44.9860   48.6690   16.6180 O   0  0  0  0  0  0  0  0  0  0  0  0
   46.5490   48.5560   18.5260 O   0  0  0  0  0  0  0  0  0  0  0  0
   52.3270   53.2920   19.6240 C   0  0  0  0  0  0  0  0  0  0  0  0
   51.7930   53.8190   20.9570 C   0  0  2  0  0  0  0  0  0  0  0  0
   50.6140   52.9580   21.4120 C   0  0  0  0  0  0  0  0  0  0  0  0
   47.9090   56.7050   20.2190 C   0  0  0  0  0  0  0  0  0  0  0  0
   49.4300   56.6760   20.3800 C   0  0  1  0  0  0  0  0  0  0  0  0
   49.8350   57.5550   21.5670 C   0  0  0  0  0  0  0  0  0  0  0  0
   51.3500   57.4570   21.7680 C   0  0  0  0  0  0  0  0  0  0  0  0
   51.7390   55.9910   21.9710 C   0  0  0  0  0  0  0  0  0  0  0  0
   51.3490   55.2100   20.7910 N   0  0  0  0  0  0  0  0  0  0  0  0
   51.7830   55.6040   19.9700 H   0  0  0  0  0  0  0  0  0  0  0  0
   49.8900   55.2400   20.6330 C   0  0  0  0  0  0  0  0  0  0  0  0
  1 17  1  0  0  0  0
  2  1  1  0  0  0  0
  3  1  1  0  0  0  0
  3  6  2  0  0  0  0
  4  3  1  0  0  0  0
  5  4  1  0  0  0  0
  7  4  1  6  0  0  0
  8  7  1  0  0  0  0
  9  8  1  0  0  0  0
 10  9  1  0  0  0  0
 10 11  1  0  0  0  0
 11 12  1  0  0  0  0
 11 13  1  0  0  0  0
 12  7  1  0  0  0  0
 13 16  2  0  0  0  0
 14 13  1  0  0  0  0
 15 13  2  0  0  0  0
 18 17  1  6  0  0  0
 18 19  1  0  0  0  0
 21 20  1  1  0  0  0
 21 27  1  0  0  0  0
 21 22  1  0  0  0  0
 22 23  1  0  0  0  0
 23 24  1  0  0  0  0
 25 18  1  0  0  0  0
 25 24  1  0  0  0  0
 26 25  1  0  0  0  0
 27 25  1  0  0  0  0
M  END
>  <MODEL>
4

>  <REMARK>
  Name = ZINC67644301
                            x       y       z     vdW  Elec       q    Type
                         _______ _______ _______ _____ _____    ______ ____

>  <TORSDO>
F 5

>  <minimizedAffinity>
-7.8907429539602871

$$$$
ZINC67644301
 OpenBabel10211216403D

 27 28  0  0  1  0  0  0  0  0999 V2000
   46.4110   60.1640   19.2890 N   0  0  0  0  0  0  0  0  0  0  0  0
   45.9020   60.2130   20.1130 H   0  0  0  0  0  0  0  0  0  0  0  0
   47.3800   59.2380   19.1490 C   0  0  0  0  0  0  0  0  0  0  0  0
   47.6410   58.3800   20.1540 N   0  0  0  0  0  0  0  0  0  0  0  0
   47.1330   58.4290   20.9790 H   0  0  0  0  0  0  0  0  0  0  0  0
   48.0180   59.1770   18.1160 O   0  0  0  0  0  0  0  0  0  0  0  0
   48.6950   57.3730   20.0020 C   0  0  2  0  0  0  0  0  0  0  0  0
   48.0600   55.9970   19.7920 C   0  0  0  0  0  0  0  0  0  0  0  0
   49.1590   54.9490   19.5990 C   0  0  0  0  0  0  0  0  0  0  0  0
   50.0280   54.8920   20.8590 C   0  0  0  0  0  0  0  0  0  0  0  0
   50.5270   56.2440   21.1520 N   0  0  0  0  0  0  0  0  0  0  0  0
   49.5610   57.3440   21.2660 C   0  0  0  0  0  0  0  0  0  0  0  0
   52.1480   56.5200   21.3480 S   0  0  0  0  0  0  0  0  0  0  0  0
   52.3040   58.3240   21.4510 C   0  0  0  0  0  0  0  0  0  0  0  0
   52.7440   56.0450   20.1480 O   0  0  0  0  0  0  0  0  0  0  0  0
   52.4680   55.9280   22.5990 O   0  0  0  0  0  0  0  0  0  0  0  0
   46.1260   61.0980   18.1960 C   0  0  0  0  0  0  0  0  0  0  0  0
   46.7500   62.4580   18.5110 C   0  0  2  0  0  0  0  0  0  0  0  0
   46.4510   62.8340   19.9630 C   0  0  0  0  0  0  0  0  0  0  0  0
   43.1700   65.7530   17.9750 C   0  0  0  0  0  0  0  0  0  0  0  0
   44.3790   65.1030   17.3000 C   0  0  1  0  0  0  0  0  0  0  0  0
   45.4030   66.1820   16.9350 C   0  0  0  0  0  0  0  0  0  0  0  0
   46.6410   65.5130   16.3320 C   0  0  0  0  0  0  0  0  0  0  0  0
   47.2010   64.4940   17.3290 C   0  0  0  0  0  0  0  0  0  0  0  0
   46.1830   63.4760   17.6150 N   0  0  0  0  0  0  0  0  0  0  0  0
   45.8940   63.0390   16.7530 H   0  0  0  0  0  0  0  0  0  0  0  0
   45.0210   64.0990   18.2590 C   0  0  0  0  0  0  0  0  0  0  0  0
  1  2  1  0  0  0  0
  3  1  1  0  0  0  0
  3  4  1  0  0  0  0
  4  5  1  0  0  0  0
  6  3  2  0  0  0  0
  7  4  1  1  0  0  0
  7 12  1  0  0  0  0
  8  7  1  0  0  0  0
  9  8  1  0  0  0  0
  9 10  1  0  0  0  0
 10 11  1  0  0  0  0
 11 12  1  0  0  0  0
 11 13  1  0  0  0  0
 13 14  1  0  0  0  0
 13 16  2  0  0  0  0
 15 13  2  0  0  0  0
 17 18  1  0  0  0  0
 17  1  1  0  0  0  0
 18 25  1  1  0  0  0
 18 19  1  0  0  0  0
 21 20  1  1  0  0  0
 21 27  1  0  0  0  0
 22 21  1  0  0  0  0
 23 22  1  0  0  0  0
 23 24  1  0  0  0  0
 24 25  1  0  0  0  0
 25 27  1  0  0  0  0
 26 25  1  0  0  0  0
M  END
>  <MODEL>
5

>  <REMARK>
  Name = ZINC67644301
                            x       y       z     vdW  Elec       q    Type
                         _______ _______ _______ _____ _____    ______ ____

>  <TORSDO>
F 5

>  <minimizedAffinity>
-7.8474278121519845

$$$$
ZINC67644301
 OpenBabel10211216403D

 27 28  0  0  1  0  0  0  0  0999 V2000
   48.7030   51.9180   17.0700 N   0  0  0  0  0  0  0  0  0  0  0  0
   47.8080   52.2640   17.2100 H   0  0  0  0  0  0  0  0  0  0  0  0
   49.7030   52.2800   17.8960 C   0  0  0  0  0  0  0  0  0  0  0  0
   49.4600   53.1250   18.9170 N   0  0  0  0  0  0  0  0  0  0  0  0
   48.5660   53.4720   19.0570 H   0  0  0  0  0  0  0  0  0  0  0  0
   50.8250   51.8450   17.7210 O   0  0  0  0  0  0  0  0  0  0  0  0
   50.5480   53.5190   19.8160 C   0  0  2  0  0  0  0  0  0  0  0  0
   50.6180   52.5430   20.9930 C   0  0  0  0  0  0  0  0  0  0  0  0
   51.7760   52.9340   21.9150 C   0  0  0  0  0  0  0  0  0  0  0  0
   51.5270   54.3410   22.4690 C   0  0  0  0  0  0  0  0  0  0  0  0
   51.3140   55.2620   21.3430 N   0  0  0  0  0  0  0  0  0  0  0  0
   50.2880   54.9330   20.3460 C   0  0  0  0  0  0  0  0  0  0  0  0
   52.2160   56.6430   21.2010 S   0  0  0  0  0  0  0  0  0  0  0  0
   51.0320   57.9980   21.4220 C   0  0  0  0  0  0  0  0  0  0  0  0
   52.6980   56.6260   19.8640 O   0  0  0  0  0  0  0  0  0  0  0  0
   53.1210   56.5990   22.2970 O   0  0  0  0  0  0  0  0  0  0  0  0
   48.9660   50.9990   15.9590 C   0  0  0  0  0  0  0  0  0  0  0  0
   48.8220   49.5560   16.4450 C   0  0  2  0  0  0  0  0  0  0  0  0
   49.2070   48.5970   15.3170 C   0  0  0  0  0  0  0  0  0  0  0  0
   44.5190   47.7300   14.9930 C   0  0  0  0  0  0  0  0  0  0  0  0
   45.2520   48.4430   16.1310 C   0  0  1  0  0  0  0  0  0  0  0  0
   45.1610   47.5990   17.4060 C   0  0  0  0  0  0  0  0  0  0  0  0
   45.9640   48.2810   18.5170 C   0  0  0  0  0  0  0  0  0  0  0  0
   47.4090   48.4740   18.0500 C   0  0  0  0  0  0  0  0  0  0  0  0
   47.4300   49.3100   16.8440 N   0  0  0  0  0  0  0  0  0  0  0  0
   46.9770   50.1900   17.0380 H   0  0  0  0  0  0  0  0  0  0  0  0
   46.7220   48.6300   15.7530 C   0  0  0  0  0  0  0  0  0  0  0  0
  1  2  1  0  0  0  0
  1  3  1  0  0  0  0
  3  4  1  0  0  0  0
  4  5  1  0  0  0  0
  6  3  2  0  0  0  0
  7  4  1  1  0  0  0
  7 12  1  0  0  0  0
  7  8  1  0  0  0  0
  8  9  1  0  0  0  0
  9 10  1  0  0  0  0
 11 10  1  0  0  0  0
 12 11  1  0  0  0  0
 13 11  1  0  0  0  0
 13 14  1  0  0  0  0
 13 16  2  0  0  0  0
 15 13  2  0  0  0  0
 17 18  1  0  0  0  0
 17  1  1  0  0  0  0
 18 19  1  6  0  0  0
 18 25  1  0  0  0  0
 21 20  1  6  0  0  0
 21 22  1  0  0  0  0
 22 23  1  0  0  0  0
 24 23  1  0  0  0  0
 25 26  1  0  0  0  0
 25 24  1  0  0  0  0
 27 21  1  0  0  0  0
 27 25  1  0  0  0  0
M  END
>  <MODEL>
6

>  <REMARK>
  Name = ZINC67644301
                            x       y       z     vdW  Elec       q    Type
                         _______ _______ _______ _____ _____    ______ ____

>  <TORSDO>
F 5

>  <minimizedAffinity>
-7.8361076489279533

$$$$
ZINC67644301
 OpenBabel10211216403D

 27 28  0  0  1  0  0  0  0  0999 V2000
   49.1870   51.9070   17.5180 N   0  0  0  0  0  0  0  0  0  0  0  0
   49.9830   51.3550   17.4710 H   0  0  0  0  0  0  0  0  0  0  0  0
   47.9780   51.3700   17.2640 C   0  0  0  0  0  0  0  0  0  0  0  0
   47.8740   50.0660   16.9440 N   0  0  0  0  0  0  0  0  0  0  0  0
   48.6700   49.5130   16.8960 H   0  0  0  0  0  0  0  0  0  0  0  0
   46.9800   52.0630   17.3240 O   0  0  0  0  0  0  0  0  0  0  0  0
   46.5590   49.4810   16.6680 C   0  0  2  0  0  0  0  0  0  0  0  0
   45.9910   48.8710   17.9510 C   0  0  0  0  0  0  0  0  0  0  0  0
   44.6030   48.2900   17.6710 C   0  0  0  0  0  0  0  0  0  0  0  0
   44.7210   47.1820   16.6210 C   0  0  0  0  0  0  0  0  0  0  0  0
   45.3990   47.7240   15.4340 N   0  0  0  0  0  0  0  0  0  0  0  0
   46.6990   48.3870   15.6040 C   0  0  0  0  0  0  0  0  0  0  0  0
   44.7090   47.5920   13.9350 S   0  0  0  0  0  0  0  0  0  0  0  0
   44.8800   45.8410   13.4950 C   0  0  0  0  0  0  0  0  0  0  0  0
   45.5260   48.3910   13.0890 O   0  0  0  0  0  0  0  0  0  0  0  0
   43.3400   47.9170   14.1360 O   0  0  0  0  0  0  0  0  0  0  0  0
   49.3010   53.3260   17.8670 C   0  0  0  0  0  0  0  0  0  0  0  0
   50.5100   53.5320   18.7810 C   0  0  2  0  0  0  0  0  0  0  0  0
   50.4740   52.5060   19.9140 C   0  0  0  0  0  0  0  0  0  0  0  0
   47.5690   57.1180   20.3470 C   0  0  0  0  0  0  0  0  0  0  0  0
   49.0240   56.7170   20.0960 C   0  0  1  0  0  0  0  0  0  0  0  0
   49.8140   56.8170   21.4040 C   0  0  0  0  0  0  0  0  0  0  0  0
   51.2480   56.3390   21.1610 C   0  0  0  0  0  0  0  0  0  0  0  0
   51.2170   54.9120   20.6090 C   0  0  0  0  0  0  0  0  0  0  0  0
   50.4710   54.8880   19.3450 N   0  0  0  0  0  0  0  0  0  0  0  0
   50.8910   55.5340   18.6950 H   0  0  0  0  0  0  0  0  0  0  0  0
   49.0750   55.2770   19.5830 C   0  0  0  0  0  0  0  0  0  0  0  0
  1 17  1  0  0  0  0
  2  1  1  0  0  0  0
  3  6  2  0  0  0  0
  3  1  1  0  0  0  0
  4  3  1  0  0  0  0
  5  4  1  0  0  0  0
  7  4  1  1  0  0  0
  7  8  1  0  0  0  0
  9  8  1  0  0  0  0
 10  9  1  0  0  0  0
 11 12  1  0  0  0  0
 11 10  1  0  0  0  0
 12  7  1  0  0  0  0
 13 16  2  0  0  0  0
 13 11  1  0  0  0  0
 14 13  1  0  0  0  0
 15 13  2  0  0  0  0
 18 17  1  1  0  0  0
 18 25  1  0  0  0  0
 18 19  1  0  0  0  0
 21 20  1  1  0  0  0
 21 22  1  0  0  0  0
 23 22  1  0  0  0  0
 24 23  1  0  0  0  0
 25 27  1  0  0  0  0
 25 24  1  0  0  0  0
 26 25  1  0  0  0  0
 27 21  1  0  0  0  0
M  END
>  <MODEL>
7

>  <REMARK>
  Name = ZINC67644301
                            x       y       z     vdW  Elec       q    Type
                         _______ _______ _______ _____ _____    ______ ____

>  <TORSDO>
F 5

>  <minimizedAffinity>
-7.5397010630311083

$$$$
ZINC67644301
 OpenBabel10211216403D

 27 28  0  0  1  0  0  0  0  0999 V2000
   50.2340   50.0200   16.3390 N   0  0  0  0  0  0  0  0  0  0  0  0
   51.1690   49.9140   16.1040 H   0  0  0  0  0  0  0  0  0  0  0  0
   49.8570   51.0070   17.1770 C   0  0  0  0  0  0  0  0  0  0  0  0
   50.7790   51.8450   17.6880 N   0  0  0  0  0  0  0  0  0  0  0  0
   51.7150   51.7380   17.4540 H   0  0  0  0  0  0  0  0  0  0  0  0
   48.6850   51.1400   17.4710 O   0  0  0  0  0  0  0  0  0  0  0  0
   50.3700   52.9170   18.5980 C   0  0  2  0  0  0  0  0  0  0  0  0
   49.2190   53.7080   17.9720 C   0  0  0  0  0  0  0  0  0  0  0  0
   48.7680   54.8080   18.9370 C   0  0  0  0  0  0  0  0  0  0  0  0
   49.9350   55.7690   19.1880 C   0  0  0  0  0  0  0  0  0  0  0  0
   51.0940   54.9950   19.6550 N   0  0  0  0  0  0  0  0  0  0  0  0
   51.5550   53.8570   18.8480 C   0  0  0  0  0  0  0  0  0  0  0  0
   51.8650   55.3970   21.0630 S   0  0  0  0  0  0  0  0  0  0  0  0
   50.7270   56.5230   21.9140 C   0  0  0  0  0  0  0  0  0  0  0  0
   53.0310   56.0980   20.6510 O   0  0  0  0  0  0  0  0  0  0  0  0
   51.9720   54.1740   21.7800 O   0  0  0  0  0  0  0  0  0  0  0  0
   49.2310   49.1090   15.7830 C   0  0  0  0  0  0  0  0  0  0  0  0
   48.6170   48.2750   16.9090 C   0  0  2  0  0  0  0  0  0  0  0  0
   48.8900   46.7920   16.6530 C   0  0  0  0  0  0  0  0  0  0  0  0
   44.4070   47.7020   14.4790 C   0  0  0  0  0  0  0  0  0  0  0  0
   45.0500   48.2720   15.7450 C   0  0  1  0  0  0  0  0  0  0  0  0
   44.4050   47.6340   16.9790 C   0  0  0  0  0  0  0  0  0  0  0  0
   45.1090   48.1520   18.2360 C   0  0  0  0  0  0  0  0  0  0  0  0
   46.6060   47.8470   18.1390 C   0  0  0  0  0  0  0  0  0  0  0  0
   47.1670   48.5070   16.9550 N   0  0  0  0  0  0  0  0  0  0  0  0
   46.9880   49.4980   17.0070 H   0  0  0  0  0  0  0  0  0  0  0  0
   46.5480   47.9640   15.7400 C   0  0  0  0  0  0  0  0  0  0  0  0
  1  3  1  0  0  0  0
  2  1  1  0  0  0  0
  3  6  2  0  0  0  0
  3  4  1  0  0  0  0
  5  4  1  0  0  0  0
  7  4  1  6  0  0  0
  7 12  1  0  0  0  0
  8  7  1  0  0  0  0
  8  9  1  0  0  0  0
  9 10  1  0  0  0  0
 10 11  1  0  0  0  0
 11 13  1  0  0  0  0
 12 11  1  0  0  0  0
 13 16  2  0  0  0  0
 13 14  1  0  0  0  0
 15 13  2  0  0  0  0
 17  1  1  0  0  0  0
 18 17  1  6  0  0  0
 18 25  1  0  0  0  0
 19 18  1  0  0  0  0
 21 20  1  6  0  0  0
 21 22  1  0  0  0  0
 22 23  1  0  0  0  0
 24 23  1  0  0  0  0
 25 26  1  0  0  0  0
 25 24  1  0  0  0  0
 27 21  1  0  0  0  0
 27 25  1  0  0  0  0
M  END
>  <MODEL>
8

>  <REMARK>
  Name = ZINC67644301
                            x       y       z     vdW  Elec       q    Type
                         _______ _______ _______ _____ _____    ______ ____

>  <TORSDO>
F 5

>  <minimizedAffinity>
-7.4901917816946346

$$$$
ZINC67644301
 OpenBabel10211216403D

 27 28  0  0  1  0  0  0  0  0999 V2000
   47.7890   59.5630   19.0090 N   0  0  0  0  0  0  0  0  0  0  0  0
   48.2720   59.8440   19.8010 H   0  0  0  0  0  0  0  0  0  0  0  0
   47.1410   60.4740   18.2550 C   0  0  0  0  0  0  0  0  0  0  0  0
   47.1650   61.7750   18.6040 N   0  0  0  0  0  0  0  0  0  0  0  0
   47.6470   62.0560   19.3970 H   0  0  0  0  0  0  0  0  0  0  0  0
   46.5360   60.1210   17.2620 O   0  0  0  0  0  0  0  0  0  0  0  0
   46.4610   62.7650   17.7850 C   0  0  2  0  0  0  0  0  0  0  0  0
   47.4720   63.7460   17.1880 C   0  0  0  0  0  0  0  0  0  0  0  0
   46.7410   64.7610   16.3050 C   0  0  0  0  0  0  0  0  0  0  0  0
   45.7480   65.5530   17.1610 C   0  0  0  0  0  0  0  0  0  0  0  0
   44.8610   64.6070   17.8540 N   0  0  0  0  0  0  0  0  0  0  0  0
   45.4620   63.5340   18.6570 C   0  0  0  0  0  0  0  0  0  0  0  0
   43.2160   64.7470   17.7300 S   0  0  0  0  0  0  0  0  0  0  0  0
   42.6610   63.1570   17.0580 C   0  0  0  0  0  0  0  0  0  0  0  0
   43.0110   65.7810   16.7760 O   0  0  0  0  0  0  0  0  0  0  0  0
   42.7640   64.8990   19.0690 O   0  0  0  0  0  0  0  0  0  0  0  0
   47.7640   58.1480   18.6300 C   0  0  0  0  0  0  0  0  0  0  0  0
   47.7570   57.2820   19.8910 C   0  0  2  0  0  0  0  0  0  0  0  0
   47.8250   58.1800   21.1280 C   0  0  0  0  0  0  0  0  0  0  0  0
   51.6340   55.7250   22.4410 C   0  0  0  0  0  0  0  0  0  0  0  0
   50.8910   55.6150   21.1090 C   0  0  1  0  0  0  0  0  0  0  0  0
   50.4850   54.1580   20.8680 C   0  0  0  0  0  0  0  0  0  0  0  0
   49.6750   54.0710   19.5720 C   0  0  0  0  0  0  0  0  0  0  0  0
   48.4630   55.0020   19.6710 C   0  0  0  0  0  0  0  0  0  0  0  0
   48.9190   56.3830   19.8740 N   0  0  0  0  0  0  0  0  0  0  0  0
   49.5360   56.6470   19.1210 H   0  0  0  0  0  0  0  0  0  0  0  0
   49.6360   56.4890   21.1500 C   0  0  0  0  0  0  0  0  0  0  0  0
  1  2  1  0  0  0  0
  3  4  1  0  0  0  0
  3  1  1  0  0  0  0
  4  5  1  0  0  0  0
  6  3  2  0  0  0  0
  7  4  1  1  0  0  0
  7 12  1  0  0  0  0
  8  7  1  0  0  0  0
  9 10  1  0  0  0  0
  9  8  1  0  0  0  0
 10 11  1  0  0  0  0
 11 12  1  0  0  0  0
 13 11  1  0  0  0  0
 13 16  2  0  0  0  0
 14 13  1  0  0  0  0
 15 13  2  0  0  0  0
 17  1  1  0  0  0  0
 18 17  1  6  0  0  0
 18 19  1  0  0  0  0
 21 27  1  0  0  0  0
 21 20  1  1  0  0  0
 22 21  1  0  0  0  0
 23 24  1  0  0  0  0
 23 22  1  0  0  0  0
 24 25  1  0  0  0  0
 25 18  1  0  0  0  0
 25 27  1  0  0  0  0
 26 25  1  0  0  0  0
M  END
>  <MODEL>
9

>  <REMARK>
  Name = ZINC67644301
                            x       y       z     vdW  Elec       q    Type
                         _______ _______ _______ _____ _____    ______ ____

>  <TORSDO>
F 5

>  <minimizedAffinity>
-7.3139346972337753

$$$$
ZINC49976026
 OpenBabel10211216413D

 27 28  0  0  1  0  0  0  0  0999 V2000
   51.0780   51.5840   19.6600 N   0  0  0  0  0  0  0  0  0  0  0  0
   52.0440   51.3240   19.5300 H   0  0  0  0  0  0  0  0  0  0  0  0
   50.9120   52.2020   20.9820 C   0  0  0  0  0  0  0  0  0  0  0  0
   51.8060   53.4400   21.0820 C   0  0  0  0  0  0  0  0  0  0  0  0
   51.4380   54.3930   20.0270 N   0  0  0  0  0  0  0  0  0  0  0  0
   51.5740   53.7800   18.6980 C   0  0  0  0  0  0  0  0  0  0  0  0
   50.6820   52.5400   18.6180 C   0  0  0  0  0  0  0  0  0  0  0  0
   50.2340   50.3850   19.5710 C   0  0  1  0  0  0  0  0  0  0  0  0
   49.5670   50.3390   18.2210 C   0  0  0  0  0  0  0  0  0  0  0  0
   50.2480   49.8910   17.1480 N   0  0  0  0  0  0  0  0  0  0  0  0
   51.1480   49.5440   17.2540 H   0  0  0  0  0  0  0  0  0  0  0  0
   48.4170   50.7060   18.0980 O   0  0  0  0  0  0  0  0  0  0  0  0
   49.6300   49.9260   15.8190 C   0  0  0  0  0  0  0  0  0  0  0  0
   48.7080   48.7170   15.6540 C   0  0  0  0  0  0  0  0  0  0  0  0
   50.7210   49.8880   14.7480 C   0  0  0  0  0  0  0  0  0  0  0  0
   48.8140   51.2120   15.6720 C   0  0  0  0  0  0  0  0  0  0  0  0
   52.5700   49.5480   19.8540 C   0  0  0  0  0  0  0  0  0  0  0  0
   51.0990   49.1370   19.7560 C   0  0  0  0  0  0  0  0  0  0  0  0
   50.6850   48.4150   21.0400 C   0  0  0  0  0  0  0  0  0  0  0  0
   52.2360   55.6220   20.1240 C   0  0  0  0  0  0  0  0  0  0  0  0
   51.3180   56.8110   20.2410 C   0  0  0  0  0  0  0  0  0  0  0  0
   49.9920   56.6600   20.0480 N   0  0  0  0  0  0  0  0  0  0  0  0
   49.6290   55.7860   19.8350 H   0  0  0  0  0  0  0  0  0  0  0  0
   51.7710   57.9040   20.5080 O   0  0  0  0  0  0  0  0  0  0  0  0
   49.0990   57.8160   20.1620 C   0  0  0  0  0  0  0  0  0  0  0  0
   48.5320   58.1380   21.5460 C   0  0  0  0  0  0  0  0  0  0  0  0
   47.6250   57.5420   20.4670 C   0  0  0  0  0  0  0  0  0  0  0  0
  1  3  1  0  0  0  0
  2  1  1  0  0  0  0
  3  4  1  0  0  0  0
  5 20  1  0  0  0  0
  5  4  1  0  0  0  0
  6  5  1  0  0  0  0
  7  6  1  0  0  0  0
  7  1  1  0  0  0  0
  8  9  1  6  0  0  0
  8  1  1  0  0  0  0
  8 18  1  0  0  0  0
 10 11  1  0  0  0  0
 10  9  1  0  0  0  0
 12  9  2  0  0  0  0
 13 10  1  0  0  0  0
 14 13  1  0  0  0  0
 15 13  1  0  0  0  0
 16 13  1  0  0  0  0
 18 17  1  0  0  0  0
 18 19  1  0  0  0  0
 20 21  1  0  0  0  0
 21 24  2  0  0  0  0
 22 25  1  0  0  0  0
 22 21  1  0  0  0  0
 23 22  1  0  0  0  0
 25 27  1  0  0  0  0
 25 26  1  0  0  0  0
 27 26  1  0  0  0  0
M  END
>  <MODEL>
1

>  <REMARK>
  Name = ZINC49976026
                            x       y       z     vdW  Elec       q    Type
                         _______ _______ _______ _____ _____    ______ ____

>  <TORSDO>
F 7

>  <minimizedAffinity>
-7.3653338049793469

$$$$
ZINC49976026
 OpenBabel10211216413D

 27 28  0  0  1  0  0  0  0  0999 V2000
   49.0560   50.8330   17.2420 N   0  0  0  0  0  0  0  0  0  0  0  0
   48.3140   50.6560   17.9020 H   0  0  0  0  0  0  0  0  0  0  0  0
   48.6540   51.9140   16.3330 C   0  0  0  0  0  0  0  0  0  0  0  0
   48.3590   53.1790   17.1420 C   0  0  0  0  0  0  0  0  0  0  0  0
   49.5600   53.5680   17.8930 N   0  0  0  0  0  0  0  0  0  0  0  0
   49.9900   52.4860   18.7890 C   0  0  0  0  0  0  0  0  0  0  0  0
   50.2720   51.2280   17.9660 C   0  0  0  0  0  0  0  0  0  0  0  0
   49.3220   49.6150   16.4660 C   0  0  1  0  0  0  0  0  0  0  0  0
   48.3220   48.5520   16.8400 C   0  0  0  0  0  0  0  0  0  0  0  0
   47.0140   48.8620   16.9360 N   0  0  0  0  0  0  0  0  0  0  0  0
   46.7080   49.7530   16.7080 H   0  0  0  0  0  0  0  0  0  0  0  0
   48.6930   47.4180   17.0570 O   0  0  0  0  0  0  0  0  0  0  0  0
   46.0520   47.8500   17.3830 C   0  0  0  0  0  0  0  0  0  0  0  0
   44.6430   48.2640   16.9550 C   0  0  0  0  0  0  0  0  0  0  0  0
   46.1080   47.7310   18.9070 C   0  0  0  0  0  0  0  0  0  0  0  0
   46.4010   46.5010   16.7520 C   0  0  0  0  0  0  0  0  0  0  0  0
   50.5010   49.5310   14.2650 C   0  0  0  0  0  0  0  0  0  0  0  0
   49.2030   49.9250   14.9730 C   0  0  0  0  0  0  0  0  0  0  0  0
   48.0380   49.1310   14.3790 C   0  0  0  0  0  0  0  0  0  0  0  0
   49.3340   54.8130   18.6400 C   0  0  0  0  0  0  0  0  0  0  0  0
   50.5940   55.1940   19.3730 C   0  0  0  0  0  0  0  0  0  0  0  0
   50.6060   55.2270   20.7210 N   0  0  0  0  0  0  0  0  0  0  0  0
   49.8030   55.0050   21.2190 H   0  0  0  0  0  0  0  0  0  0  0  0
   51.5970   55.4730   18.7520 O   0  0  0  0  0  0  0  0  0  0  0  0
   51.8300   55.5980   21.4340 C   0  0  0  0  0  0  0  0  0  0  0  0
   51.7520   55.7190   22.9580 C   0  0  0  0  0  0  0  0  0  0  0  0
   51.8720   56.9770   22.0950 C   0  0  0  0  0  0  0  0  0  0  0  0
  1  2  1  0  0  0  0
  1  7  1  0  0  0  0
  3  4  1  0  0  0  0
  3  1  1  0  0  0  0
  4  5  1  0  0  0  0
  5 20  1  0  0  0  0
  5  6  1  0  0  0  0
  7  6  1  0  0  0  0
  8 18  1  6  0  0  0
  8  9  1  0  0  0  0
  8  1  1  0  0  0  0
  9 10  1  0  0  0  0
  9 12  2  0  0  0  0
 10 13  1  0  0  0  0
 11 10  1  0  0  0  0
 13 15  1  0  0  0  0
 14 13  1  0  0  0  0
 16 13  1  0  0  0  0
 17 18  1  0  0  0  0
 19 18  1  0  0  0  0
 20 21  1  0  0  0  0
 21 22  1  0  0  0  0
 22 23  1  0  0  0  0
 22 25  1  0  0  0  0
 24 21  2  0  0  0  0
 25 27  1  0  0  0  0
 25 26  1  0  0  0  0
 27 26  1  0  0  0  0
M  END
>  <MODEL>
2

>  <REMARK>
  Name = ZINC49976026
                            x       y       z     vdW  Elec       q    Type
                         _______ _______ _______ _____ _____    ______ ____

>  <TORSDO>
F 7

>  <minimizedAffinity>
-7.1247096791851954

$$$$
ZINC49976026
 OpenBabel10211216413D

 27 28  0  0  1  0  0  0  0  0999 V2000
   52.4450   55.4640   20.5130 N   0  0  0  0  0  0  0  0  0  0  0  0
   53.4030   55.3180   20.7920 H   0  0  0  0  0  0  0  0  0  0  0  0
   52.2440   54.9320   19.1590 C   0  0  0  0  0  0  0  0  0  0  0  0
   52.5720   53.4370   19.1440 C   0  0  0  0  0  0  0  0  0  0  0  0
   51.7010   52.7380   20.0990 N   0  0  0  0  0  0  0  0  0  0  0  0
   51.8720   53.2770   21.4550 C   0  0  0  0  0  0  0  0  0  0  0  0
   51.5500   54.7730   21.4500 C   0  0  0  0  0  0  0  0  0  0  0  0
   52.1470   56.9030   20.5220 C   0  0  1  0  0  0  0  0  0  0  0  0
   50.6910   57.1120   20.8470 C   0  0  0  0  0  0  0  0  0  0  0  0
   49.8440   57.5510   19.8950 N   0  0  0  0  0  0  0  0  0  0  0  0
   50.1590   57.6770   18.9870 H   0  0  0  0  0  0  0  0  0  0  0  0
   50.2800   56.8860   21.9660 O   0  0  0  0  0  0  0  0  0  0  0  0
   48.4470   57.8370   20.2320 C   0  0  0  0  0  0  0  0  0  0  0  0
   47.6330   56.5430   20.1690 C   0  0  0  0  0  0  0  0  0  0  0  0
   47.8780   58.8480   19.2350 C   0  0  0  0  0  0  0  0  0  0  0  0
   48.3720   58.4170   21.6460 C   0  0  0  0  0  0  0  0  0  0  0  0
   54.4810   57.5210   21.1610 C   0  0  0  0  0  0  0  0  0  0  0  0
   53.0110   57.5950   21.5780 C   0  0  0  0  0  0  0  0  0  0  0  0
   52.5890   59.0600   21.7010 C   0  0  0  0  0  0  0  0  0  0  0  0
   51.9470   51.2900   20.0730 C   0  0  0  0  0  0  0  0  0  0  0  0
   51.1310   50.6610   18.9740 C   0  0  0  0  0  0  0  0  0  0  0  0
   49.9410   50.0920   19.2580 N   0  0  0  0  0  0  0  0  0  0  0  0
   49.6120   50.0880   20.1710 H   0  0  0  0  0  0  0  0  0  0  0  0
   51.5430   50.6650   17.8330 O   0  0  0  0  0  0  0  0  0  0  0  0
   49.1480   49.4800   18.1900 C   0  0  0  0  0  0  0  0  0  0  0  0
   47.8530   50.1850   17.7790 C   0  0  0  0  0  0  0  0  0  0  0  0
   47.7950   48.8770   18.5720 C   0  0  0  0  0  0  0  0  0  0  0  0
  1  2  1  0  0  0  0
  1  7  1  0  0  0  0
  3  1  1  0  0  0  0
  4  3  1  0  0  0  0
  4  5  1  0  0  0  0
  5  6  1  0  0  0  0
  7  6  1  0  0  0  0
  8  1  1  1  0  0  0
  8  9  1  0  0  0  0
  8 18  1  0  0  0  0
  9 12  2  0  0  0  0
 10 13  1  0  0  0  0
 10  9  1  0  0  0  0
 11 10  1  0  0  0  0
 13 16  1  0  0  0  0
 14 13  1  0  0  0  0
 15 13  1  0  0  0  0
 17 18  1  0  0  0  0
 18 19  1  0  0  0  0
 20  5  1  0  0  0  0
 21 22  1  0  0  0  0
 21 20  1  0  0  0  0
 22 23  1  0  0  0  0
 24 21  2  0  0  0  0
 25 27  1  0  0  0  0
 25 22  1  0  0  0  0
 26 25  1  0  0  0  0
 26 27  1  0  0  0  0
M  END
>  <MODEL>
3

>  <REMARK>
  Name = ZINC49976026
                            x       y       z     vdW  Elec       q    Type
                         _______ _______ _______ _____ _____    ______ ____

>  <TORSDO>
F 7

>  <minimizedAffinity>
-7.1197891719675042

$$$$
ZINC49976026
 OpenBabel10211216413D

 27 28  0  0  1  0  0  0  0  0999 V2000
   51.9720   54.6480   20.3340 N   0  0  0  0  0  0  0  0  0  0  0  0
   52.6510   54.6540   21.0810 H   0  0  0  0  0  0  0  0  0  0  0  0
   52.4150   53.7280   19.2780 C   0  0  0  0  0  0  0  0  0  0  0  0
   52.5700   52.3200   19.8590 C   0  0  0  0  0  0  0  0  0  0  0  0
   51.2830   51.8770   20.4110 N   0  0  0  0  0  0  0  0  0  0  0  0
   50.8140   52.8020   21.4520 C   0  0  0  0  0  0  0  0  0  0  0  0
   50.6730   54.2050   20.8580 C   0  0  0  0  0  0  0  0  0  0  0  0
   51.8410   56.0020   19.7800 C   0  0  1  0  0  0  0  0  0  0  0  0
   50.3970   56.2670   19.4400 C   0  0  0  0  0  0  0  0  0  0  0  0
   49.6860   57.1540   20.1630 N   0  0  0  0  0  0  0  0  0  0  0  0
   50.1180   57.6640   20.8670 H   0  0  0  0  0  0  0  0  0  0  0  0
   49.8740   55.6830   18.5140 O   0  0  0  0  0  0  0  0  0  0  0  0
   48.2600   57.3500   19.8880 C   0  0  0  0  0  0  0  0  0  0  0  0
   47.6550   58.2600   20.9580 C   0  0  0  0  0  0  0  0  0  0  0  0
   47.5460   55.9960   19.9050 C   0  0  0  0  0  0  0  0  0  0  0  0
   48.0910   57.9980   18.5130 C   0  0  0  0  0  0  0  0  0  0  0  0
   52.2420   56.4070   22.2120 C   0  0  0  0  0  0  0  0  0  0  0  0
   52.3170   57.0240   20.8140 C   0  0  0  0  0  0  0  0  0  0  0  0
   53.7630   57.4200   20.5100 C   0  0  0  0  0  0  0  0  0  0  0  0
   51.3760   50.5050   20.9290 C   0  0  0  0  0  0  0  0  0  0  0  0
   50.5700   49.5820   20.0540 C   0  0  0  0  0  0  0  0  0  0  0  0
   49.7380   50.0900   19.1220 N   0  0  0  0  0  0  0  0  0  0  0  0
   49.6590   51.0520   19.0160 H   0  0  0  0  0  0  0  0  0  0  0  0
   50.6680   48.3800   20.1860 O   0  0  0  0  0  0  0  0  0  0  0  0
   48.9540   49.1920   18.2710 C   0  0  0  0  0  0  0  0  0  0  0  0
   47.7010   49.7640   17.6050 C   0  0  0  0  0  0  0  0  0  0  0  0
   47.5680   48.7790   18.7680 C   0  0  0  0  0  0  0  0  0  0  0  0
  1  7  1  0  0  0  0
  1  2  1  0  0  0  0
  3  4  1  0  0  0  0
  3  1  1  0  0  0  0
  4  5  1  0  0  0  0
  5 20  1  0  0  0  0
  5  6  1  0  0  0  0
  7  6  1  0  0  0  0
  8  9  1  1  0  0  0
  8  1  1  0  0  0  0
  8 18  1  0  0  0  0
  9 10  1  0  0  0  0
 10 11  1  0  0  0  0
 12  9  2  0  0  0  0
 13 15  1  0  0  0  0
 13 10  1  0  0  0  0
 13 14  1  0  0  0  0
 16 13  1  0  0  0  0
 18 17  1  0  0  0  0
 19 18  1  0  0  0  0
 21 24  2  0  0  0  0
 21 20  1  0  0  0  0
 22 21  1  0  0  0  0
 23 22  1  0  0  0  0
 25 27  1  0  0  0  0
 25 22  1  0  0  0  0
 26 25  1  0  0  0  0
 26 27  1  0  0  0  0
M  END
>  <MODEL>
4

>  <REMARK>
  Name = ZINC49976026
                            x       y       z     vdW  Elec       q    Type
                         _______ _______ _______ _____ _____    ______ ____

>  <TORSDO>
F 7

>  <minimizedAffinity>
-7.0465156859405012

$$$$
ZINC49976026
 OpenBabel10211216413D

 27 28  0  0  1  0  0  0  0  0999 V2000
   50.1440   49.9840   17.5360 N   0  0  0  0  0  0  0  0  0  0  0  0
   51.1150   49.7760   17.3590 H   0  0  0  0  0  0  0  0  0  0  0  0
   49.7990   49.5810   18.9060 C   0  0  0  0  0  0  0  0  0  0  0  0
   50.6870   50.3350   19.8990 C   0  0  0  0  0  0  0  0  0  0  0  0
   50.4870   51.7810   19.7300 N   0  0  0  0  0  0  0  0  0  0  0  0
   50.8030   52.1950   18.3560 C   0  0  0  0  0  0  0  0  0  0  0  0
   49.9140   51.4260   17.3770 C   0  0  0  0  0  0  0  0  0  0  0  0
   49.3040   49.2460   16.5840 C   0  0  1  0  0  0  0  0  0  0  0  0
   47.8960   49.1640   17.1140 C   0  0  0  0  0  0  0  0  0  0  0  0
   47.2530   47.9800   17.1380 N   0  0  0  0  0  0  0  0  0  0  0  0
   47.7150   47.1710   16.8680 H   0  0  0  0  0  0  0  0  0  0  0  0
   47.3400   50.1630   17.5190 O   0  0  0  0  0  0  0  0  0  0  0  0
   45.8540   47.9140   17.5730 C   0  0  0  0  0  0  0  0  0  0  0  0
   45.8010   47.6030   19.0700 C   0  0  0  0  0  0  0  0  0  0  0  0
   45.1300   46.8130   16.7960 C   0  0  0  0  0  0  0  0  0  0  0  0
   45.1740   49.2590   17.3070 C   0  0  0  0  0  0  0  0  0  0  0  0
   50.5800   49.6300   14.4710 C   0  0  0  0  0  0  0  0  0  0  0  0
   49.3000   49.9730   15.2380 C   0  0  0  0  0  0  0  0  0  0  0  0
   48.0830   49.5320   14.4220 C   0  0  0  0  0  0  0  0  0  0  0  0
   51.2810   52.5400   20.7050 C   0  0  0  0  0  0  0  0  0  0  0  0
   51.1500   54.0140   20.4210 C   0  0  0  0  0  0  0  0  0  0  0  0
   49.9480   54.6160   20.5190 N   0  0  0  0  0  0  0  0  0  0  0  0
   49.1660   54.0990   20.7710 H   0  0  0  0  0  0  0  0  0  0  0  0
   52.1270   54.6600   20.1050 O   0  0  0  0  0  0  0  0  0  0  0  0
   49.8210   56.0490   20.2430 C   0  0  0  0  0  0  0  0  0  0  0  0
   49.6400   56.9850   21.4390 C   0  0  0  0  0  0  0  0  0  0  0  0
   48.4620   56.7000   20.5050 C   0  0  0  0  0  0  0  0  0  0  0  0
  1  3  1  0  0  0  0
  2  1  1  0  0  0  0
  3  4  1  0  0  0  0
  5  4  1  0  0  0  0
  5 20  1  0  0  0  0
  6  5  1  0  0  0  0
  7  1  1  0  0  0  0
  7  6  1  0  0  0  0
  8 18  1  1  0  0  0
  8  9  1  0  0  0  0
  8  1  1  0  0  0  0
  9 10  1  0  0  0  0
  9 12  2  0  0  0  0
 10 13  1  0  0  0  0
 11 10  1  0  0  0  0
 13 14  1  0  0  0  0
 15 13  1  0  0  0  0
 16 13  1  0  0  0  0
 17 18  1  0  0  0  0
 19 18  1  0  0  0  0
 21 22  1  0  0  0  0
 21 20  1  0  0  0  0
 22 23  1  0  0  0  0
 24 21  2  0  0  0  0
 25 27  1  0  0  0  0
 25 22  1  0  0  0  0
 25 26  1  0  0  0  0
 27 26  1  0  0  0  0
M  END
>  <MODEL>
5

>  <REMARK>
  Name = ZINC49976026
                            x       y       z     vdW  Elec       q    Type
                         _______ _______ _______ _____ _____    ______ ____

>  <TORSDO>
F 7

>  <minimizedAffinity>
-7.0002167315185115

$$$$
ZINC49976026
 OpenBabel10211216413D

 27 28  0  0  1  0  0  0  0  0999 V2000
   50.5650   54.2680   20.5830 N   0  0  0  0  0  0  0  0  0  0  0  0
   49.7490   53.8900   20.1250 H   0  0  0  0  0  0  0  0  0  0  0  0
   50.8940   53.4460   21.7540 C   0  0  0  0  0  0  0  0  0  0  0  0
   51.1600   52.0060   21.3090 C   0  0  0  0  0  0  0  0  0  0  0  0
   52.2730   51.9900   20.3510 N   0  0  0  0  0  0  0  0  0  0  0  0
   51.9700   52.8300   19.1840 C   0  0  0  0  0  0  0  0  0  0  0  0
   51.6970   54.2630   19.6470 C   0  0  0  0  0  0  0  0  0  0  0  0
   50.2920   55.6460   21.0120 C   0  0  1  0  0  0  0  0  0  0  0  0
   51.5280   56.4860   20.8230 C   0  0  0  0  0  0  0  0  0  0  0  0
   52.3060   56.7880   21.8800 N   0  0  0  0  0  0  0  0  0  0  0  0
   52.1030   56.4190   22.7540 H   0  0  0  0  0  0  0  0  0  0  0  0
   51.8240   56.8900   19.7180 O   0  0  0  0  0  0  0  0  0  0  0  0
   53.4600   57.6760   21.7120 C   0  0  0  0  0  0  0  0  0  0  0  0
   54.1890   57.3230   20.4140 C   0  0  0  0  0  0  0  0  0  0  0  0
   54.4140   57.5040   22.8960 C   0  0  0  0  0  0  0  0  0  0  0  0
   52.9810   59.1280   21.6480 C   0  0  0  0  0  0  0  0  0  0  0  0
   48.1650   55.1070   19.8190 C   0  0  0  0  0  0  0  0  0  0  0  0
   49.1490   56.2230   20.1760 C   0  0  0  0  0  0  0  0  0  0  0  0
   48.4240   57.3040   20.9800 C   0  0  0  0  0  0  0  0  0  0  0  0
   52.5980   50.6180   19.9420 C   0  0  0  0  0  0  0  0  0  0  0  0
   51.3450   49.7820   19.9460 C   0  0  0  0  0  0  0  0  0  0  0  0
   50.6190   49.6480   18.8170 N   0  0  0  0  0  0  0  0  0  0  0  0
   50.9050   50.0910   18.0030 H   0  0  0  0  0  0  0  0  0  0  0  0
   50.9880   49.2280   20.9650 O   0  0  0  0  0  0  0  0  0  0  0  0
   49.4010   48.8350   18.8220 C   0  0  0  0  0  0  0  0  0  0  0  0
   48.8030   48.4510   17.4660 C   0  0  0  0  0  0  0  0  0  0  0  0
   48.1090   49.4980   18.3400 C   0  0  0  0  0  0  0  0  0  0  0  0
  1  8  1  0  0  0  0
  1  3  1  0  0  0  0
  2  1  1  0  0  0  0
  4  3  1  0  0  0  0
  5  4  1  0  0  0  0
  6  7  1  0  0  0  0
  6  5  1  0  0  0  0
  7  1  1  0  0  0  0
  8 18  1  6  0  0  0
  9  8  1  0  0  0  0
  9 10  1  0  0  0  0
 10 11  1  0  0  0  0
 12  9  2  0  0  0  0
 13 10  1  0  0  0  0
 13 15  1  0  0  0  0
 14 13  1  0  0  0  0
 16 13  1  0  0  0  0
 17 18  1  0  0  0  0
 18 19  1  0  0  0  0
 20 21  1  0  0  0  0
 20  5  1  0  0  0  0
 21 24  2  0  0  0  0
 22 25  1  0  0  0  0
 22 21  1  0  0  0  0
 23 22  1  0  0  0  0
 26 27  1  0  0  0  0
 26 25  1  0  0  0  0
 27 25  1  0  0  0  0
M  END
>  <MODEL>
6

>  <REMARK>
  Name = ZINC49976026
                            x       y       z     vdW  Elec       q    Type
                         _______ _______ _______ _____ _____    ______ ____

>  <TORSDO>
F 7

>  <minimizedAffinity>
-6.7688912980058156

$$$$
ZINC49976026
 OpenBabel10211216413D

 27 28  0  0  1  0  0  0  0  0999 V2000
   49.2760   50.3250   18.6190 N   0  0  0  0  0  0  0  0  0  0  0  0
   48.8670   50.8440   19.3820 H   0  0  0  0  0  0  0  0  0  0  0  0
   48.9230   48.9050   18.7480 C   0  0  0  0  0  0  0  0  0  0  0  0
   47.4000   48.7540   18.7300 C   0  0  0  0  0  0  0  0  0  0  0  0
   46.8730   49.2940   17.4700 N   0  0  0  0  0  0  0  0  0  0  0  0
   47.2400   50.7080   17.3130 C   0  0  0  0  0  0  0  0  0  0  0  0
   48.7640   50.8440   17.3440 C   0  0  0  0  0  0  0  0  0  0  0  0
   50.7370   50.4720   18.6550 C   0  0  1  0  0  0  0  0  0  0  0  0
   51.0930   51.9330   18.7460 C   0  0  0  0  0  0  0  0  0  0  0  0
   50.3800   52.7520   19.5440 N   0  0  0  0  0  0  0  0  0  0  0  0
   49.6750   52.3920   20.1030 H   0  0  0  0  0  0  0  0  0  0  0  0
   52.0210   52.3730   18.1010 O   0  0  0  0  0  0  0  0  0  0  0  0
   50.6710   54.1890   19.5670 C   0  0  0  0  0  0  0  0  0  0  0  0
   50.2740   54.7660   20.9270 C   0  0  0  0  0  0  0  0  0  0  0  0
   49.8760   54.8880   18.4630 C   0  0  0  0  0  0  0  0  0  0  0  0
   52.1670   54.4100   19.3370 C   0  0  0  0  0  0  0  0  0  0  0  0
   52.8070   49.5680   19.7220 C   0  0  0  0  0  0  0  0  0  0  0  0
   51.2930   49.7350   19.8750 C   0  0  0  0  0  0  0  0  0  0  0  0
   50.9940   50.5430   21.1390 C   0  0  0  0  0  0  0  0  0  0  0  0
   45.4170   49.1150   17.3880 C   0  0  0  0  0  0  0  0  0  0  0  0
   45.0760   48.3280   16.1500 C   0  0  0  0  0  0  0  0  0  0  0  0
   45.8480   48.4320   15.0490 N   0  0  0  0  0  0  0  0  0  0  0  0
   46.6240   49.0150   15.0550 H   0  0  0  0  0  0  0  0  0  0  0  0
   44.1070   47.5990   16.1420 O   0  0  0  0  0  0  0  0  0  0  0  0
   45.5160   47.6660   13.8460 C   0  0  0  0  0  0  0  0  0  0  0  0
   45.8020   48.3190   12.4910 C   0  0  0  0  0  0  0  0  0  0  0  0
   44.3600   48.1740   12.9830 C   0  0  0  0  0  0  0  0  0  0  0  0
  1  3  1  0  0  0  0
  1  2  1  0  0  0  0
  4  3  1  0  0  0  0
  5  4  1  0  0  0  0
  6  7  1  0  0  0  0
  6  5  1  0  0  0  0
  7  1  1  0  0  0  0
  8  1  1  1  0  0  0
  8  9  1  0  0  0  0
  8 18  1  0  0  0  0
  9 10  1  0  0  0  0
 10 13  1  0  0  0  0
 10 11  1  0  0  0  0
 12  9  2  0  0  0  0
 13 14  1  0  0  0  0
 15 13  1  0  0  0  0
 16 13  1  0  0  0  0
 17 18  1  0  0  0  0
 18 19  1  0  0  0  0
 20  5  1  0  0  0  0
 21 20  1  0  0  0  0
 22 23  1  0  0  0  0
 22 21  1  0  0  0  0
 24 21  2  0  0  0  0
 25 22  1  0  0  0  0
 26 27  1  0  0  0  0
 26 25  1  0  0  0  0
 27 25  1  0  0  0  0
M  END
>  <MODEL>
7

>  <REMARK>
  Name = ZINC49976026
                            x       y       z     vdW  Elec       q    Type
                         _______ _______ _______ _____ _____    ______ ____

>  <TORSDO>
F 7

>  <minimizedAffinity>
-6.6675129585937682

$$$$
ZINC49976026
 OpenBabel10211216413D

 27 28  0  0  1  0  0  0  0  0999 V2000
   51.4530   54.7320   19.8300 N   0  0  0  0  0  0  0  0  0  0  0  0
   51.4290   54.3400   20.7590 H   0  0  0  0  0  0  0  0  0  0  0  0
   52.6560   54.2620   19.1310 C   0  0  0  0  0  0  0  0  0  0  0  0
   52.6380   52.7340   19.0550 C   0  0  0  0  0  0  0  0  0  0  0  0
   51.4320   52.2960   18.3390 N   0  0  0  0  0  0  0  0  0  0  0  0
   50.2190   52.7810   19.0130 C   0  0  0  0  0  0  0  0  0  0  0  0
   50.2570   54.3090   19.0890 C   0  0  0  0  0  0  0  0  0  0  0  0
   51.4790   56.1980   19.9190 C   0  0  1  0  0  0  0  0  0  0  0  0
   50.1600   56.6940   20.4510 C   0  0  0  0  0  0  0  0  0  0  0  0
   49.4830   57.6530   19.7890 N   0  0  0  0  0  0  0  0  0  0  0  0
   49.8170   57.9840   18.9410 H   0  0  0  0  0  0  0  0  0  0  0  0
   49.7050   56.2300   21.4760 O   0  0  0  0  0  0  0  0  0  0  0  0
   48.2430   58.1960   20.3510 C   0  0  0  0  0  0  0  0  0  0  0  0
   48.5030   58.6920   21.7740 C   0  0  0  0  0  0  0  0  0  0  0  0
   47.1730   57.1030   20.3780 C   0  0  0  0  0  0  0  0  0  0  0  0
   47.7600   59.3620   19.4850 C   0  0  0  0  0  0  0  0  0  0  0  0
   52.7170   58.1580   20.8520 C   0  0  0  0  0  0  0  0  0  0  0  0
   52.6040   56.6310   20.8610 C   0  0  0  0  0  0  0  0  0  0  0  0
   52.2940   56.1520   22.2800 C   0  0  0  0  0  0  0  0  0  0  0  0
   51.4050   50.8350   18.1940 C   0  0  0  0  0  0  0  0  0  0  0  0
   50.0870   50.4120   17.6020 C   0  0  0  0  0  0  0  0  0  0  0  0
   49.1790   49.7690   18.3650 N   0  0  0  0  0  0  0  0  0  0  0  0
   49.3770   49.5790   19.2960 H   0  0  0  0  0  0  0  0  0  0  0  0
   49.8400   50.6490   16.4380 O   0  0  0  0  0  0  0  0  0  0  0  0
   47.8970   49.3570   17.7880 C   0  0  0  0  0  0  0  0  0  0  0  0
   46.9630   48.5220   18.6670 C   0  0  0  0  0  0  0  0  0  0  0  0
   47.7000   47.8690   17.4960 C   0  0  0  0  0  0  0  0  0  0  0  0
  1  2  1  0  0  0  0
  3  1  1  0  0  0  0
  4  3  1  0  0  0  0
  5  6  1  0  0  0  0
  5  4  1  0  0  0  0
  6  7  1  0  0  0  0
  7  1  1  0  0  0  0
  8  1  1  1  0  0  0
  8  9  1  0  0  0  0
  8 18  1  0  0  0  0
  9 12  2  0  0  0  0
 10 13  1  0  0  0  0
 10  9  1  0  0  0  0
 11 10  1  0  0  0  0
 13 15  1  0  0  0  0
 13 14  1  0  0  0  0
 16 13  1  0  0  0  0
 17 18  1  0  0  0  0
 18 19  1  0  0  0  0
 20  5  1  0  0  0  0
 21 20  1  0  0  0  0
 21 22  1  0  0  0  0
 22 23  1  0  0  0  0
 24 21  2  0  0  0  0
 25 22  1  0  0  0  0
 25 26  1  0  0  0  0
 27 25  1  0  0  0  0
 27 26  1  0  0  0  0
M  END
>  <MODEL>
8

>  <REMARK>
  Name = ZINC49976026
                            x       y       z     vdW  Elec       q    Type
                         _______ _______ _______ _____ _____    ______ ____

>  <TORSDO>
F 7

>  <minimizedAffinity>
-6.6113628563442122

$$$$
ZINC49976026
 OpenBabel10211216413D

 27 28  0  0  1  0  0  0  0  0999 V2000
   50.2620   51.7610   18.9450 N   0  0  0  0  0  0  0  0  0  0  0  0
   51.1120   51.7670   18.4010 H   0  0  0  0  0  0  0  0  0  0  0  0
   50.5080   52.4010   20.2440 C   0  0  0  0  0  0  0  0  0  0  0  0
   50.9800   53.8400   20.0230 C   0  0  0  0  0  0  0  0  0  0  0  0
   49.9520   54.5810   19.2790 N   0  0  0  0  0  0  0  0  0  0  0  0
   49.6750   53.9370   17.9870 C   0  0  0  0  0  0  0  0  0  0  0  0
   49.2150   52.4980   18.2250 C   0  0  0  0  0  0  0  0  0  0  0  0
   49.8270   50.3740   19.1570 C   0  0  1  0  0  0  0  0  0  0  0  0
   49.2400   49.8310   17.8800 C   0  0  0  0  0  0  0  0  0  0  0  0
   49.9890   49.7830   16.7610 N   0  0  0  0  0  0  0  0  0  0  0  0
   50.9220   50.0440   16.7910 H   0  0  0  0  0  0  0  0  0  0  0  0
   48.0930   49.4360   17.8590 O   0  0  0  0  0  0  0  0  0  0  0  0
   49.3940   49.3350   15.4990 C   0  0  0  0  0  0  0  0  0  0  0  0
   48.8190   47.9290   15.6780 C   0  0  0  0  0  0  0  0  0  0  0  0
   50.4660   49.3140   14.4080 C   0  0  0  0  0  0  0  0  0  0  0  0
   48.2740   50.2960   15.0950 C   0  0  0  0  0  0  0  0  0  0  0  0
   52.3090   50.3460   19.4360 C   0  0  0  0  0  0  0  0  0  0  0  0
   51.0270   49.5210   19.5710 C   0  0  0  0  0  0  0  0  0  0  0  0
   50.8590   49.0750   21.0250 C   0  0  0  0  0  0  0  0  0  0  0  0
   50.3430   55.9850   19.0960 C   0  0  0  0  0  0  0  0  0  0  0  0
   50.8500   56.5400   20.4010 C   0  0  0  0  0  0  0  0  0  0  0  0
   52.1540   56.8530   20.5400 N   0  0  0  0  0  0  0  0  0  0  0  0
   52.7660   56.7200   19.7980 H   0  0  0  0  0  0  0  0  0  0  0  0
   50.0850   56.7070   21.3280 O   0  0  0  0  0  0  0  0  0  0  0  0
   52.6470   57.3940   21.8090 C   0  0  0  0  0  0  0  0  0  0  0  0
   52.9370   58.8950   21.8720 C   0  0  0  0  0  0  0  0  0  0  0  0
   54.0930   57.8930   21.8490 C   0  0  0  0  0  0  0  0  0  0  0  0
  1  8  1  0  0  0  0
  1  3  1  0  0  0  0
  2  1  1  0  0  0  0
  4  3  1  0  0  0  0
  5  4  1  0  0  0  0
  6  7  1  0  0  0  0
  6  5  1  0  0  0  0
  7  1  1  0  0  0  0
  8  9  1  6  0  0  0
  8 18  1  0  0  0  0
 10 11  1  0  0  0  0
 10  9  1  0  0  0  0
 12  9  2  0  0  0  0
 13 14  1  0  0  0  0
 13 10  1  0  0  0  0
 15 13  1  0  0  0  0
 16 13  1  0  0  0  0
 17 18  1  0  0  0  0
 18 19  1  0  0  0  0
 20  5  1  0  0  0  0
 20 21  1  0  0  0  0
 21 22  1  0  0  0  0
 21 24  2  0  0  0  0
 22 25  1  0  0  0  0
 23 22  1  0  0  0  0
 25 27  1  0  0  0  0
 25 26  1  0  0  0  0
 27 26  1  0  0  0  0
M  END
>  <MODEL>
9

>  <REMARK>
  Name = ZINC49976026
                            x       y       z     vdW  Elec       q    Type
                         _______ _______ _______ _____ _____    ______ ____

>  <TORSDO>
F 7

>  <minimizedAffinity>
-6.6024162279213821

$$$$
