21
     RDKit          3D

 49 52  0  0  1  0  0  0  0  0999 V2000
    1.4217   29.0339    6.7678 C   0  0  0  0  0  0  0  0  0  0  0  0
   -1.4495   32.1629    8.0083 C   0  0  0  0  0  0  0  0  0  0  0  0
   -0.5815   26.6248    8.9778 C   0  0  2  0  0  0  0  0  0  0  0  0
   -1.2497   25.7672   10.0807 C   0  0  1  0  0  0  0  0  0  0  0  0
   -1.3554   24.3310    9.5273 C   0  0  2  0  0  0  0  0  0  0  0  0
   -1.6533   23.2725   10.6026 C   0  0  2  0  0  0  0  0  0  0  0  0
   -0.7810   23.3432   11.8649 C   0  0  2  0  0  0  0  0  0  0  0  0
   -0.7120   24.7794   12.4320 C   0  0  2  0  0  0  0  0  0  0  0  0
   -0.3879   25.8595   11.3799 C   0  0  2  0  0  0  0  0  0  0  0  0
    3.8830   25.4729    7.4169 C   0  0  0  0  0  0  0  0  0  0  0  0
    4.7150   25.1304    6.3553 C   0  0  0  0  0  0  0  0  0  0  0  0
    4.8274   25.9694    5.2530 C   0  0  0  0  0  0  0  0  0  0  0  0
    4.1093   27.1608    5.2180 C   0  0  0  0  0  0  0  0  0  0  0  0
    0.4877   28.1800    7.4982 N   0  0  0  0  0  0  0  0  0  0  0  0
   -0.5683   28.6367    8.0863 C   0  0  0  0  0  0  0  0  0  0  0  0
   -1.3889   27.8077    8.7519 O   0  0  0  0  0  0  0  0  0  0  0  0
   -0.8370   30.0586    7.9869 C   0  0  0  0  0  0  0  0  0  0  0  0
   -1.8063   31.0217    8.4246 N   0  0  0  0  0  0  0  0  0  0  0  0
   -0.3369   32.0964    7.3183 N   0  0  0  0  0  0  0  0  0  0  0  0
    0.0117   30.8437    7.3111 C   0  0  0  0  0  0  0  0  0  0  0  0
    1.1723   30.2779    6.7090 N   0  0  0  0  0  0  0  0  0  0  0  0
    2.5230   28.7213    6.1569 N   0  0  0  0  0  0  0  0  0  0  0  0
    3.2724   27.5365    6.2660 C   0  0  0  0  0  0  0  0  0  0  0  0
    3.2070   26.7023    7.3872 C   0  0  0  0  0  0  0  0  0  0  0  0
   -1.9734   33.0854    8.1590 H   0  0  0  0  0  0  0  0  0  0  0  0
   -0.5316   26.0533    8.0438 H   0  0  0  0  0  0  0  0  0  0  0  0
    0.4475   26.7887    9.3212 H   0  0  0  0  0  0  0  0  0  0  0  0
   -2.2583   26.1253   10.2964 H   0  0  0  0  0  0  0  0  0  0  0  0
   -0.4170   24.0352    9.0564 H   0  0  0  0  0  0  0  0  0  0  0  0
   -2.1109   24.2843    8.7401 H   0  0  0  0  0  0  0  0  0  0  0  0
   -1.6099   22.2703   10.1762 H   0  0  0  0  0  0  0  0  0  0  0  0
   -2.6837   23.4230   10.9169 H   0  0  0  0  0  0  0  0  0  0  0  0
    0.2296   23.0136   11.6181 H   0  0  0  0  0  0  0  0  0  0  0  0
   -1.1519   22.6520   12.6234 H   0  0  0  0  0  0  0  0  0  0  0  0
   -0.0270   24.8115   13.2727 H   0  0  0  0  0  0  0  0  0  0  0  0
   -1.6868   25.0180   12.8618 H   0  0  0  0  0  0  0  0  0  0  0  0
   -0.4775   26.8521   11.8246 H   0  0  0  0  0  0  0  0  0  0  0  0
    0.6712   25.7322   11.1526 H   0  0  0  0  0  0  0  0  0  0  0  0
    3.7341   24.5258    8.4032 O   0  0  0  0  0  0  0  0  0  0  0  0
    5.2595   24.1995    6.3701 H   0  0  0  0  0  0  0  0  0  0  0  0
    5.4732   25.7042    4.4282 H   0  0  0  0  0  0  0  0  0  0  0  0
    4.2202   27.7982    4.3629 H   0  0  0  0  0  0  0  0  0  0  0  0
    0.0882   32.8958    6.8444 H   0  0  0  0  0  0  0  0  0  0  0  0
    2.9031   29.4470    5.5670 H   0  0  0  0  0  0  0  0  0  0  0  0
    2.5821   26.9916    8.2137 H   0  0  0  0  0  0  0  0  0  0  0  0
    2.6682   24.6890    9.3381 C   0  0  1  0  0  0  0  0  0  0  0  0
    1.7151   24.8462    8.8387 H   0  0  0  0  0  0  0  0  0  0  0  0
    2.5595   23.7913    9.9458 H   0  0  0  0  0  0  0  0  0  0  0  0
    2.8509   25.5284   10.0085 H   0  0  0  0  0  0  0  0  0  0  0  0
  1 14  1  0
  1 21  2  0
  1 22  1  0
  2 18  2  0
  2 19  1  0
  2 25  1  0
  3  4  1  0
  3 16  1  0
  3 26  1  6
  3 27  1  0
  4  5  1  0
  4  9  1  0
  4 28  1  1
  5  6  1  0
  5 29  1  6
  5 30  1  0
  6  7  1  0
  6 31  1  6
  6 32  1  0
  7  8  1  0
  7 33  1  6
  7 34  1  0
  8  9  1  0
  8 35  1  1
  8 36  1  0
  9 37  1  1
  9 38  1  0
 10 11  1  0
 10 24  2  0
 10 39  1  0
 11 12  2  0
 11 40  1  0
 12 13  1  0
 12 41  1  0
 13 23  2  0
 13 42  1  0
 14 15  2  0
 15 16  1  0
 15 17  1  0
 17 18  1  0
 17 20  2  0
 19 20  1  0
 19 43  1  0
 20 21  1  0
 22 23  1  0
 22 44  1  0
 23 24  1  0
 24 45  1  0
 39 46  1  0
 46 47  1  6
 46 48  1  0
 46 49  1  0
M  END
