31
     RDKit          3D

 50 53  0  0  1  0  0  0  0  0999 V2000
    1.4217   29.0339    6.7678 C   0  0  0  0  0  0  0  0  0  0  0  0
   -1.4495   32.1629    8.0083 C   0  0  0  0  0  0  0  0  0  0  0  0
   -0.5815   26.6248    8.9778 C   0  0  2  0  0  0  0  0  0  0  0  0
   -1.2497   25.7672   10.0807 C   0  0  1  0  0  0  0  0  0  0  0  0
   -1.3554   24.3310    9.5273 C   0  0  2  0  0  0  0  0  0  0  0  0
   -1.6533   23.2725   10.6026 C   0  0  2  0  0  0  0  0  0  0  0  0
   -0.7810   23.3432   11.8649 C   0  0  2  0  0  0  0  0  0  0  0  0
   -0.7120   24.7794   12.4320 C   0  0  2  0  0  0  0  0  0  0  0  0
   -0.3879   25.8595   11.3799 C   0  0  2  0  0  0  0  0  0  0  0  0
    4.7322   25.8642    5.4135 C   0  0  0  0  0  0  0  0  0  0  0  0
    4.7890   25.2322    6.6518 C   0  0  0  0  0  0  0  0  0  0  0  0
    4.1199   25.7636    7.7550 C   0  0  0  0  0  0  0  0  0  0  0  0
    3.3645   26.9251    7.5989 C   0  0  0  0  0  0  0  0  0  0  0  0
    0.4877   28.1800    7.4982 N   0  0  0  0  0  0  0  0  0  0  0  0
   -0.5683   28.6367    8.0863 C   0  0  0  0  0  0  0  0  0  0  0  0
   -1.3889   27.8077    8.7519 O   0  0  0  0  0  0  0  0  0  0  0  0
   -0.8370   30.0586    7.9869 C   0  0  0  0  0  0  0  0  0  0  0  0
   -1.8063   31.0217    8.4246 N   0  0  0  0  0  0  0  0  0  0  0  0
   -0.3369   32.0964    7.3183 N   0  0  0  0  0  0  0  0  0  0  0  0
    0.0117   30.8437    7.3111 C   0  0  0  0  0  0  0  0  0  0  0  0
    1.1723   30.2779    6.7090 N   0  0  0  0  0  0  0  0  0  0  0  0
    2.5230   28.7213    6.1569 N   0  0  0  0  0  0  0  0  0  0  0  0
    3.2843   27.5599    6.3527 C   0  0  0  0  0  0  0  0  0  0  0  0
    3.9951   27.0348    5.2773 C   0  0  0  0  0  0  0  0  0  0  0  0
   -1.9734   33.0854    8.1591 H   0  0  0  0  0  0  0  0  0  0  0  0
   -0.5407   26.0543    8.0426 H   0  0  0  0  0  0  0  0  0  0  0  0
    0.4538   26.7757    9.3107 H   0  0  0  0  0  0  0  0  0  0  0  0
   -2.2583   26.1252   10.2960 H   0  0  0  0  0  0  0  0  0  0  0  0
   -0.4094   24.0420    9.0635 H   0  0  0  0  0  0  0  0  0  0  0  0
   -2.1061   24.2823    8.7357 H   0  0  0  0  0  0  0  0  0  0  0  0
   -1.6087   22.2706   10.1757 H   0  0  0  0  0  0  0  0  0  0  0  0
   -2.6839   23.4224   10.9163 H   0  0  0  0  0  0  0  0  0  0  0  0
    0.2295   23.0137   11.6178 H   0  0  0  0  0  0  0  0  0  0  0  0
   -1.1517   22.6519   12.6233 H   0  0  0  0  0  0  0  0  0  0  0  0
   -0.0267   24.8115   13.2724 H   0  0  0  0  0  0  0  0  0  0  0  0
   -1.6866   25.0182   12.8621 H   0  0  0  0  0  0  0  0  0  0  0  0
   -0.4741   26.8527   11.8240 H   0  0  0  0  0  0  0  0  0  0  0  0
    0.6710   25.7286   11.1476 H   0  0  0  0  0  0  0  0  0  0  0  0
    5.2729   25.4694    4.5653 H   0  0  0  0  0  0  0  0  0  0  0  0
    4.1851   25.2784    8.7205 H   0  0  0  0  0  0  0  0  0  0  0  0
    2.8387   27.3303    8.4500 H   0  0  0  0  0  0  0  0  0  0  0  0
    0.0886   32.8956    6.8444 H   0  0  0  0  0  0  0  0  0  0  0  0
    2.9426   29.4596    5.6101 H   0  0  0  0  0  0  0  0  0  0  0  0
    3.9832   27.5328    4.3266 H   0  0  0  0  0  0  0  0  0  0  0  0
    5.7835   23.7174    6.8066 S   0  0  0  0  0  0  0  0  0  0  0  0
    6.5267   23.8284    8.1384 O   0  0  0  0  0  0  0  0  0  0  0  0
    4.7145   21.5570    7.2136 H   0  0  0  0  0  0  0  0  0  0  0  0
    3.8225   22.8575    8.0059 H   0  0  0  0  0  0  0  0  0  0  0  0
    4.3542   22.5776    7.0971 C   0  0  1  0  0  0  0  0  0  0  0  0
    3.6606   22.6067    6.2579 H   0  0  0  0  0  0  0  0  0  0  0  0
  1 14  1  0
  1 21  2  0
  1 22  1  0
  2 18  2  0
  2 19  1  0
  2 25  1  0
  3  4  1  0
  3 16  1  0
  3 26  1  6
  3 27  1  0
  4  5  1  0
  4  9  1  0
  4 28  1  1
  5  6  1  0
  5 29  1  6
  5 30  1  0
  6  7  1  0
  6 31  1  6
  6 32  1  0
  7  8  1  0
  7 33  1  6
  7 34  1  0
  8  9  1  0
  8 35  1  1
  8 36  1  0
  9 37  1  1
  9 38  1  0
 10 11  1  0
 10 24  2  0
 10 39  1  0
 11 12  2  0
 45 11  1  1
 12 13  1  0
 12 40  1  0
 13 23  2  0
 13 41  1  0
 14 15  2  0
 15 16  1  0
 15 17  1  0
 17 18  1  0
 17 20  2  0
 19 20  1  0
 19 42  1  0
 20 21  1  0
 22 23  1  0
 22 43  1  0
 23 24  1  0
 24 44  1  0
 45 46  2  0
 45 49  1  0
 49 47  1  1
 48 49  1  0
 49 50  1  0
M  END
