28
     RDKit          3D

 53 56  0  0  1  0  0  0  0  0999 V2000
    1.4217   29.0339    6.7678 C   0  0  0  0  0  0  0  0  0  0  0  0
   -1.4495   32.1629    8.0083 C   0  0  0  0  0  0  0  0  0  0  0  0
   -0.5815   26.6248    8.9778 C   0  0  2  0  0  0  0  0  0  0  0  0
   -1.2497   25.7672   10.0807 C   0  0  1  0  0  0  0  0  0  0  0  0
   -1.3554   24.3310    9.5273 C   0  0  2  0  0  0  0  0  0  0  0  0
   -1.6533   23.2725   10.6026 C   0  0  2  0  0  0  0  0  0  0  0  0
   -0.7810   23.3432   11.8649 C   0  0  2  0  0  0  0  0  0  0  0  0
   -0.7120   24.7794   12.4320 C   0  0  2  0  0  0  0  0  0  0  0  0
   -0.3879   25.8595   11.3799 C   0  0  2  0  0  0  0  0  0  0  0  0
    4.5703   25.6678    5.7559 C   0  0  0  0  0  0  0  0  0  0  0  0
    4.5606   25.1636    7.0615 C   0  0  0  0  0  0  0  0  0  0  0  0
    3.9805   25.9024    8.0908 C   0  0  0  0  0  0  0  0  0  0  0  0
    3.3438   27.1019    7.7921 C   0  0  0  0  0  0  0  0  0  0  0  0
    0.4877   28.1800    7.4982 N   0  0  0  0  0  0  0  0  0  0  0  0
   -0.5683   28.6367    8.0863 C   0  0  0  0  0  0  0  0  0  0  0  0
   -1.3889   27.8077    8.7519 O   0  0  0  0  0  0  0  0  0  0  0  0
   -0.8370   30.0586    7.9869 C   0  0  0  0  0  0  0  0  0  0  0  0
   -1.8063   31.0217    8.4246 N   0  0  0  0  0  0  0  0  0  0  0  0
   -0.3369   32.0964    7.3183 N   0  0  0  0  0  0  0  0  0  0  0  0
    0.0117   30.8437    7.3111 C   0  0  0  0  0  0  0  0  0  0  0  0
    1.1723   30.2779    6.7090 N   0  0  0  0  0  0  0  0  0  0  0  0
    2.5230   28.7213    6.1569 N   0  0  0  0  0  0  0  0  0  0  0  0
    3.2728   27.5772    6.4762 C   0  0  0  0  0  0  0  0  0  0  0  0
    3.9314   26.8754    5.4698 C   0  0  0  0  0  0  0  0  0  0  0  0
   -1.9735   33.0854    8.1591 H   0  0  0  0  0  0  0  0  0  0  0  0
   -0.5408   26.0544    8.0426 H   0  0  0  0  0  0  0  0  0  0  0  0
    0.4540   26.7754    9.3104 H   0  0  0  0  0  0  0  0  0  0  0  0
   -2.2583   26.1252   10.2960 H   0  0  0  0  0  0  0  0  0  0  0  0
   -0.4094   24.0419    9.0637 H   0  0  0  0  0  0  0  0  0  0  0  0
   -2.1061   24.2823    8.7357 H   0  0  0  0  0  0  0  0  0  0  0  0
   -1.6087   22.2706   10.1758 H   0  0  0  0  0  0  0  0  0  0  0  0
   -2.6838   23.4224   10.9164 H   0  0  0  0  0  0  0  0  0  0  0  0
    0.2296   23.0140   11.6176 H   0  0  0  0  0  0  0  0  0  0  0  0
   -1.1515   22.6518   12.6233 H   0  0  0  0  0  0  0  0  0  0  0  0
   -0.0265   24.8114   13.2723 H   0  0  0  0  0  0  0  0  0  0  0  0
   -1.6866   25.0182   12.8622 H   0  0  0  0  0  0  0  0  0  0  0  0
   -0.4739   26.8527   11.8240 H   0  0  0  0  0  0  0  0  0  0  0  0
    0.6710   25.7284   11.1476 H   0  0  0  0  0  0  0  0  0  0  0  0
    5.0455   25.1160    4.9567 H   0  0  0  0  0  0  0  0  0  0  0  0
    3.9898   25.5360    9.1098 H   0  0  0  0  0  0  0  0  0  0  0  0
    2.8521   27.6427    8.5843 H   0  0  0  0  0  0  0  0  0  0  0  0
    0.0884   32.8957    6.8443 H   0  0  0  0  0  0  0  0  0  0  0  0
    3.0021   29.4794    5.6910 H   0  0  0  0  0  0  0  0  0  0  0  0
    3.9161   27.2468    4.4573 H   0  0  0  0  0  0  0  0  0  0  0  0
    5.2951   23.5701    7.4173 S   0  0  2  0  0  0  0  0  0  0  0  0
    6.6052   23.8293    8.0128 O   0  0  0  0  0  0  0  0  0  0  0  0
    5.1852   22.7580    6.2005 O   0  0  0  0  0  0  0  0  0  0  0  0
    4.5234   23.1875    9.6005 H   0  0  0  0  0  0  0  0  0  0  0  0
    4.3251   22.8051    8.6521 N   0  0  0  0  0  0  0  0  0  0  0  0
    2.8978   22.5285    8.3872 C   0  0  1  0  0  0  0  0  0  0  0  0
    2.5145   21.8347    9.1361 H   0  0  0  0  0  0  0  0  0  0  0  0
    2.3277   23.4528    8.4759 H   0  0  0  0  0  0  0  0  0  0  0  0
    2.7647   22.1012    7.3923 H   0  0  0  0  0  0  0  0  0  0  0  0
  1 14  1  0
  1 21  2  0
  1 22  1  0
  2 18  2  0
  2 19  1  0
  2 25  1  0
  3  4  1  0
  3 16  1  0
  3 26  1  6
  3 27  1  0
  4  5  1  0
  4  9  1  0
  4 28  1  1
  5  6  1  0
  5 29  1  6
  5 30  1  0
  6  7  1  0
  6 31  1  6
  6 32  1  0
  7  8  1  0
  7 33  1  6
  7 34  1  0
  8  9  1  0
  8 35  1  1
  8 36  1  0
  9 37  1  1
  9 38  1  0
 10 11  1  0
 10 24  2  0
 10 39  1  0
 11 12  2  0
 11 45  1  0
 12 13  1  0
 12 40  1  0
 13 23  2  0
 13 41  1  0
 14 15  2  0
 15 16  1  0
 15 17  1  0
 17 18  1  0
 17 20  2  0
 19 20  1  0
 19 42  1  0
 20 21  1  0
 22 23  1  0
 22 43  1  0
 23 24  1  0
 24 44  1  0
 45 46  2  0
 45 47  2  0
 45 49  1  1
 48 49  1  0
 49 50  1  0
 50 51  1  1
 50 52  1  0
 50 53  1  0
M  END
