29
     RDKit          3D

 56 59  0  0  1  0  0  0  0  0999 V2000
    1.4217   29.0339    6.7678 C   0  0  0  0  0  0  0  0  0  0  0  0
   -1.4495   32.1629    8.0083 C   0  0  0  0  0  0  0  0  0  0  0  0
   -0.5815   26.6248    8.9778 C   0  0  2  0  0  0  0  0  0  0  0  0
   -1.2497   25.7672   10.0807 C   0  0  1  0  0  0  0  0  0  0  0  0
   -1.3554   24.3310    9.5273 C   0  0  2  0  0  0  0  0  0  0  0  0
   -1.6533   23.2725   10.6026 C   0  0  2  0  0  0  0  0  0  0  0  0
   -0.7810   23.3432   11.8649 C   0  0  2  0  0  0  0  0  0  0  0  0
   -0.7120   24.7794   12.4320 C   0  0  2  0  0  0  0  0  0  0  0  0
   -0.3879   25.8595   11.3799 C   0  0  2  0  0  0  0  0  0  0  0  0
    3.9641   25.5882    7.5827 C   0  0  0  0  0  0  0  0  0  0  0  0
    4.7033   25.1360    6.4855 C   0  0  0  0  0  0  0  0  0  0  0  0
    4.7800   25.9177    5.3338 C   0  0  0  0  0  0  0  0  0  0  0  0
    4.0707   27.1112    5.2579 C   0  0  0  0  0  0  0  0  0  0  0  0
    0.4877   28.1800    7.4982 N   0  0  0  0  0  0  0  0  0  0  0  0
   -0.5683   28.6367    8.0863 C   0  0  0  0  0  0  0  0  0  0  0  0
   -1.3889   27.8077    8.7519 O   0  0  0  0  0  0  0  0  0  0  0  0
   -0.8370   30.0586    7.9869 C   0  0  0  0  0  0  0  0  0  0  0  0
   -1.8063   31.0217    8.4246 N   0  0  0  0  0  0  0  0  0  0  0  0
   -0.3369   32.0964    7.3183 N   0  0  0  0  0  0  0  0  0  0  0  0
    0.0117   30.8437    7.3111 C   0  0  0  0  0  0  0  0  0  0  0  0
    1.1723   30.2779    6.7090 N   0  0  0  0  0  0  0  0  0  0  0  0
    2.5230   28.7213    6.1569 N   0  0  0  0  0  0  0  0  0  0  0  0
    3.2733   27.5428    6.3128 C   0  0  0  0  0  0  0  0  0  0  0  0
    3.2595   26.7892    7.4938 C   0  0  0  0  0  0  0  0  0  0  0  0
   -1.9735   33.0854    8.1591 H   0  0  0  0  0  0  0  0  0  0  0  0
   -0.5394   26.0542    8.0428 H   0  0  0  0  0  0  0  0  0  0  0  0
    0.4527   26.7770    9.3124 H   0  0  0  0  0  0  0  0  0  0  0  0
   -2.2583   26.1252   10.2960 H   0  0  0  0  0  0  0  0  0  0  0  0
   -0.4095   24.0418    9.0634 H   0  0  0  0  0  0  0  0  0  0  0  0
   -2.1062   24.2823    8.7358 H   0  0  0  0  0  0  0  0  0  0  0  0
   -1.6088   22.2706   10.1757 H   0  0  0  0  0  0  0  0  0  0  0  0
   -2.6839   23.4224   10.9163 H   0  0  0  0  0  0  0  0  0  0  0  0
    0.2295   23.0136   11.6178 H   0  0  0  0  0  0  0  0  0  0  0  0
   -1.1518   22.6519   12.6233 H   0  0  0  0  0  0  0  0  0  0  0  0
   -0.0268   24.8115   13.2726 H   0  0  0  0  0  0  0  0  0  0  0  0
   -1.6867   25.0181   12.8620 H   0  0  0  0  0  0  0  0  0  0  0  0
   -0.4742   26.8527   11.8240 H   0  0  0  0  0  0  0  0  0  0  0  0
    0.6710   25.7286   11.1478 H   0  0  0  0  0  0  0  0  0  0  0  0
    3.9202   25.0086    8.4964 H   0  0  0  0  0  0  0  0  0  0  0  0
    5.3922   25.6206    4.4969 H   0  0  0  0  0  0  0  0  0  0  0  0
    4.1495   27.7035    4.3662 H   0  0  0  0  0  0  0  0  0  0  0  0
    0.0885   32.8957    6.8444 H   0  0  0  0  0  0  0  0  0  0  0  0
    2.9159   29.4458    5.5739 H   0  0  0  0  0  0  0  0  0  0  0  0
    2.6830   27.1202    8.3438 H   0  0  0  0  0  0  0  0  0  0  0  0
    5.5736   23.5685    6.5648 S   0  0  2  0  0  0  0  0  0  0  0  0
    4.9444   22.7785    7.6290 O   0  0  0  0  0  0  0  0  0  0  0  0
    7.0040   23.8821    6.6472 O   0  0  0  0  0  0  0  0  0  0  0  0
    5.2834   22.7096    5.0246 N   0  0  0  0  0  0  0  0  0  0  0  0
    3.9030   22.2721    4.7187 C   0  0  1  0  0  0  0  0  0  0  0  0
    3.9179   21.4047    4.0581 H   0  0  0  0  0  0  0  0  0  0  0  0
    3.3810   22.0025    5.6380 H   0  0  0  0  0  0  0  0  0  0  0  0
    3.3572   23.0871    4.2434 H   0  0  0  0  0  0  0  0  0  0  0  0
    6.1267   23.0257    3.8465 C   0  0  1  0  0  0  0  0  0  0  0  0
    6.2128   22.1486    3.2044 H   0  0  0  0  0  0  0  0  0  0  0  0
    5.6964   23.8488    3.2763 H   0  0  0  0  0  0  0  0  0  0  0  0
    7.1286   23.3143    4.1657 H   0  0  0  0  0  0  0  0  0  0  0  0
  1 14  1  0
  1 21  2  0
  1 22  1  0
  2 18  2  0
  2 19  1  0
  2 25  1  0
  3  4  1  0
  3 16  1  0
  3 26  1  6
  3 27  1  0
  4  5  1  0
  4  9  1  0
  4 28  1  1
  5  6  1  0
  5 29  1  6
  5 30  1  0
  6  7  1  0
  6 31  1  6
  6 32  1  0
  7  8  1  0
  7 33  1  6
  7 34  1  0
  8  9  1  0
  8 35  1  1
  8 36  1  0
  9 37  1  1
  9 38  1  0
 10 11  1  0
 10 24  2  0
 10 39  1  0
 11 12  2  0
 11 45  1  0
 12 13  1  0
 12 40  1  0
 13 23  2  0
 13 41  1  0
 14 15  2  0
 15 16  1  0
 15 17  1  0
 17 18  1  0
 17 20  2  0
 19 20  1  0
 19 42  1  0
 20 21  1  0
 22 23  1  0
 22 43  1  0
 23 24  1  0
 24 44  1  0
 45 46  2  0
 45 47  2  0
 45 48  1  6
 48 49  1  0
 48 53  1  0
 49 50  1  6
 49 51  1  0
 49 52  1  0
 53 54  1  6
 53 55  1  0
 53 56  1  0
M  END
