26
     RDKit          3D

 49 52  0  0  1  0  0  0  0  0999 V2000
    1.4217   29.0339    6.7678 C   0  0  0  0  0  0  0  0  0  0  0  0
   -1.4495   32.1629    8.0083 C   0  0  0  0  0  0  0  0  0  0  0  0
   -0.5815   26.6248    8.9778 C   0  0  2  0  0  0  0  0  0  0  0  0
   -1.2497   25.7672   10.0807 C   0  0  1  0  0  0  0  0  0  0  0  0
   -1.3554   24.3310    9.5273 C   0  0  2  0  0  0  0  0  0  0  0  0
   -1.6533   23.2725   10.6026 C   0  0  2  0  0  0  0  0  0  0  0  0
   -0.7810   23.3432   11.8649 C   0  0  2  0  0  0  0  0  0  0  0  0
   -0.7120   24.7794   12.4320 C   0  0  2  0  0  0  0  0  0  0  0  0
   -0.3879   25.8595   11.3799 C   0  0  2  0  0  0  0  0  0  0  0  0
    4.0399   25.6757    7.6957 C   0  0  0  0  0  0  0  0  0  0  0  0
    4.7875   25.1856    6.6264 C   0  0  0  0  0  0  0  0  0  0  0  0
    4.7791   25.8875    5.4143 C   0  0  0  0  0  0  0  0  0  0  0  0
    4.0452   27.0638    5.2862 C   0  0  0  0  0  0  0  0  0  0  0  0
    0.4877   28.1800    7.4982 N   0  0  0  0  0  0  0  0  0  0  0  0
   -0.5683   28.6367    8.0863 C   0  0  0  0  0  0  0  0  0  0  0  0
   -1.3889   27.8077    8.7519 O   0  0  0  0  0  0  0  0  0  0  0  0
   -0.8370   30.0586    7.9869 C   0  0  0  0  0  0  0  0  0  0  0  0
   -1.8063   31.0217    8.4246 N   0  0  0  0  0  0  0  0  0  0  0  0
   -0.3369   32.0964    7.3183 N   0  0  0  0  0  0  0  0  0  0  0  0
    0.0117   30.8437    7.3111 C   0  0  0  0  0  0  0  0  0  0  0  0
    1.1723   30.2779    6.7090 N   0  0  0  0  0  0  0  0  0  0  0  0
    2.5230   28.7213    6.1569 N   0  0  0  0  0  0  0  0  0  0  0  0
    3.2787   27.5472    6.3422 C   0  0  0  0  0  0  0  0  0  0  0  0
    3.2973   26.8498    7.5583 C   0  0  0  0  0  0  0  0  0  0  0  0
   -1.9734   33.0854    8.1589 H   0  0  0  0  0  0  0  0  0  0  0  0
   -0.5400   26.0543    8.0427 H   0  0  0  0  0  0  0  0  0  0  0  0
    0.4533   26.7765    9.3115 H   0  0  0  0  0  0  0  0  0  0  0  0
   -2.2583   26.1252   10.2960 H   0  0  0  0  0  0  0  0  0  0  0  0
   -0.4094   24.0422    9.0634 H   0  0  0  0  0  0  0  0  0  0  0  0
   -2.1062   24.2825    8.7358 H   0  0  0  0  0  0  0  0  0  0  0  0
   -1.6089   22.2706   10.1758 H   0  0  0  0  0  0  0  0  0  0  0  0
   -2.6839   23.4225   10.9164 H   0  0  0  0  0  0  0  0  0  0  0  0
    0.2295   23.0137   11.6179 H   0  0  0  0  0  0  0  0  0  0  0  0
   -1.1518   22.6520   12.6234 H   0  0  0  0  0  0  0  0  0  0  0  0
   -0.0266   24.8114   13.2725 H   0  0  0  0  0  0  0  0  0  0  0  0
   -1.6867   25.0182   12.8621 H   0  0  0  0  0  0  0  0  0  0  0  0
   -0.4741   26.8527   11.8238 H   0  0  0  0  0  0  0  0  0  0  0  0
    0.6709   25.7286   11.1474 H   0  0  0  0  0  0  0  0  0  0  0  0
    4.0435   25.1507    8.6411 H   0  0  0  0  0  0  0  0  0  0  0  0
    5.5046   24.0214    6.8332 O   0  0  0  0  0  0  0  0  0  0  0  0
    5.3506   25.5504    4.5641 H   0  0  0  0  0  0  0  0  0  0  0  0
    4.0802   27.6004    4.3561 H   0  0  0  0  0  0  0  0  0  0  0  0
    0.0886   32.8955    6.8443 H   0  0  0  0  0  0  0  0  0  0  0  0
    2.9254   29.4492    5.5834 H   0  0  0  0  0  0  0  0  0  0  0  0
    2.7325   27.2131    8.4033 H   0  0  0  0  0  0  0  0  0  0  0  0
    6.6084   23.7570    5.9632 C   0  0  1  0  0  0  0  0  0  0  0  0
    7.1779   22.9077    6.3401 H   0  0  0  0  0  0  0  0  0  0  0  0
    6.2756   23.5023    4.9559 H   0  0  0  0  0  0  0  0  0  0  0  0
    7.2941   24.6043    5.9069 H   0  0  0  0  0  0  0  0  0  0  0  0
  1 14  1  0
  1 21  2  0
  1 22  1  0
  2 18  2  0
  2 19  1  0
  2 25  1  0
  3  4  1  0
  3 16  1  0
  3 26  1  6
  3 27  1  0
  4  5  1  0
  4  9  1  0
  4 28  1  1
  5  6  1  0
  5 29  1  6
  5 30  1  0
  6  7  1  0
  6 31  1  6
  6 32  1  0
  7  8  1  0
  7 33  1  6
  7 34  1  0
  8  9  1  0
  8 35  1  1
  8 36  1  0
  9 37  1  1
  9 38  1  0
 10 11  1  0
 10 24  2  0
 10 39  1  0
 11 12  2  0
 11 40  1  0
 12 13  1  0
 12 41  1  0
 13 23  2  0
 13 42  1  0
 14 15  2  0
 15 16  1  0
 15 17  1  0
 17 18  1  0
 17 20  2  0
 19 20  1  0
 19 43  1  0
 20 21  1  0
 22 23  1  0
 22 44  1  0
 23 24  1  0
 24 45  1  0
 40 46  1  0
 46 47  1  1
 46 48  1  0
 46 49  1  0
M  END
