1oiu
     RDKit          3D

 50 53  0  0  1  0  0  0  0  0999 V2000
    1.4217   29.0339    6.7678 C   0  0  0  0  0  0  0  0  0  0  0  0
   -1.4495   32.1629    8.0083 C   0  0  0  0  0  0  0  0  0  0  0  0
   -0.5815   26.6248    8.9778 C   0  0  2  0  0  0  0  0  0  0  0  0
   -1.2497   25.7672   10.0807 C   0  0  1  0  0  0  0  0  0  0  0  0
   -1.3554   24.3310    9.5273 C   0  0  2  0  0  0  0  0  0  0  0  0
   -1.6533   23.2725   10.6026 C   0  0  2  0  0  0  0  0  0  0  0  0
   -0.7810   23.3432   11.8649 C   0  0  2  0  0  0  0  0  0  0  0  0
   -0.7120   24.7794   12.4320 C   0  0  2  0  0  0  0  0  0  0  0  0
   -0.3879   25.8595   11.3799 C   0  0  2  0  0  0  0  0  0  0  0  0
    4.6851   25.7559    5.5946 C   0  0  0  0  0  0  0  0  0  0  0  0
    4.7516   25.2231    6.8855 C   0  0  0  0  0  0  0  0  0  0  0  0
    4.1030   25.8603    7.9404 C   0  0  0  0  0  0  0  0  0  0  0  0
    3.3770   27.0262    7.7024 C   0  0  0  0  0  0  0  0  0  0  0  0
    0.4877   28.1800    7.4982 N   0  0  0  0  0  0  0  0  0  0  0  0
   -0.5683   28.6367    8.0863 C   0  0  0  0  0  0  0  0  0  0  0  0
   -1.3889   27.8077    8.7519 O   0  0  0  0  0  0  0  0  0  0  0  0
   -0.8370   30.0586    7.9869 C   0  0  0  0  0  0  0  0  0  0  0  0
   -1.8063   31.0217    8.4246 N   0  0  0  0  0  0  0  0  0  0  0  0
   -0.3369   32.0964    7.3183 N   0  0  0  0  0  0  0  0  0  0  0  0
    0.0117   30.8437    7.3111 C   0  0  0  0  0  0  0  0  0  0  0  0
    1.1723   30.2779    6.7090 N   0  0  0  0  0  0  0  0  0  0  0  0
    2.5230   28.7213    6.1569 N   0  0  0  0  0  0  0  0  0  0  0  0
    3.2877   27.5715    6.4135 C   0  0  0  0  0  0  0  0  0  0  0  0
    3.9699   26.9409    5.3712 C   0  0  0  0  0  0  0  0  0  0  0  0
   -1.9736   33.0853    8.1590 H   0  0  0  0  0  0  0  0  0  0  0  0
   -0.5409   26.0545    8.0425 H   0  0  0  0  0  0  0  0  0  0  0  0
    0.4539   26.7755    9.3104 H   0  0  0  0  0  0  0  0  0  0  0  0
   -2.2583   26.1251   10.2960 H   0  0  0  0  0  0  0  0  0  0  0  0
   -0.4095   24.0421    9.0634 H   0  0  0  0  0  0  0  0  0  0  0  0
   -2.1063   24.2824    8.7358 H   0  0  0  0  0  0  0  0  0  0  0  0
   -1.6090   22.2706   10.1758 H   0  0  0  0  0  0  0  0  0  0  0  0
   -2.6838   23.4226   10.9164 H   0  0  0  0  0  0  0  0  0  0  0  0
    0.2296   23.0138   11.6179 H   0  0  0  0  0  0  0  0  0  0  0  0
   -1.1518   22.6520   12.6234 H   0  0  0  0  0  0  0  0  0  0  0  0
   -0.0266   24.8114   13.2724 H   0  0  0  0  0  0  0  0  0  0  0  0
   -1.6867   25.0182   12.8621 H   0  0  0  0  0  0  0  0  0  0  0  0
   -0.4741   26.8527   11.8240 H   0  0  0  0  0  0  0  0  0  0  0  0
    0.6710   25.7286   11.1476 H   0  0  0  0  0  0  0  0  0  0  0  0
    5.3084   24.3189    7.0765 H   0  0  0  0  0  0  0  0  0  0  0  0
    4.1539   25.4499    8.9411 H   0  0  0  0  0  0  0  0  0  0  0  0
    2.8640   27.5007    8.5248 H   0  0  0  0  0  0  0  0  0  0  0  0
    0.0879   32.8960    6.8442 H   0  0  0  0  0  0  0  0  0  0  0  0
    2.9724   29.4762    5.6566 H   0  0  0  0  0  0  0  0  0  0  0  0
    3.9240   27.3610    4.3798 H   0  0  0  0  0  0  0  0  0  0  0  0
    5.4743   24.8958    4.2384 S   0  0  2  0  0  0  0  0  0  0  0  0
    5.4559   25.7574    3.0549 O   0  0  0  0  0  0  0  0  0  0  0  0
    4.9300   23.5362    4.2049 O   0  0  0  0  0  0  0  0  0  0  0  0
    7.4549   25.6774    4.9014 H   0  0  0  0  0  0  0  0  0  0  0  0
    7.1144   24.7267    4.6907 N   0  0  0  0  0  0  0  0  0  0  0  0
    7.1786   24.1610    5.5331 H   0  0  0  0  0  0  0  0  0  0  0  0
  1 14  1  0
  1 21  2  0
  1 22  1  0
  2 18  2  0
  2 19  1  0
  2 25  1  0
  3  4  1  0
  3 16  1  0
  3 26  1  6
  3 27  1  0
  4  5  1  0
  4  9  1  0
  4 28  1  1
  5  6  1  0
  5 29  1  6
  5 30  1  0
  6  7  1  0
  6 31  1  6
  6 32  1  0
  7  8  1  0
  7 33  1  6
  7 34  1  0
  8  9  1  0
  8 35  1  1
  8 36  1  0
  9 37  1  1
  9 38  1  0
 10 11  1  0
 10 24  2  0
 10 45  1  0
 11 12  2  0
 11 39  1  0
 12 13  1  0
 12 40  1  0
 13 23  2  0
 13 41  1  0
 14 15  2  0
 15 16  1  0
 15 17  1  0
 17 18  1  0
 17 20  2  0
 19 20  1  0
 19 42  1  0
 20 21  1  0
 22 23  1  0
 22 43  1  0
 23 24  1  0
 24 44  1  0
 45 46  2  0
 45 47  2  0
 45 49  1  1
 48 49  1  0
 49 50  1  0
M  END
