ligand17_int
     RDKit          3D

 68 72  0  0  1  0  0  0  0  0999 V2000
   13.6770   -4.7910   -0.4110 C   0  0  0  0  0  0  0  0  0  0  0  0
   14.9530   -4.3290   -0.0310 C   0  0  0  0  0  0  0  0  0  0  0  0
   15.9780   -4.5500   -0.9440 C   0  0  0  0  0  0  0  0  0  0  0  0
   15.7460   -5.1810   -2.1610 C   0  0  0  0  0  0  0  0  0  0  0  0
   14.4860   -5.6010   -2.5560 C   0  0  0  0  0  0  0  0  0  0  0  0
   13.4370   -5.4280   -1.6490 C   0  0  0  0  0  0  0  0  0  0  0  0
   14.3460   -6.2730   -3.7480 O   0  0  0  0  0  0  0  0  0  0  0  0
   14.0570   -5.5600   -4.8780 C   0  0  0  0  0  0  0  0  0  0  0  0
   13.5980   -4.2670   -4.8120 C   0  0  0  0  0  0  0  0  0  0  0  0
   13.3010   -3.5760   -5.9590 C   0  0  0  0  0  0  0  0  0  0  0  0
   13.4660   -4.1610   -7.2050 C   0  0  0  0  0  0  0  0  0  0  0  0
   13.9300   -5.4340   -7.2540 C   0  0  0  0  0  0  0  0  0  0  0  0
   14.2220   -6.1590   -6.1200 C   0  0  0  0  0  0  0  0  0  0  0  0
   12.6256   -2.2165   -5.8091 C   0  0  2  0  0  0  0  0  0  0  0  0
   13.5578   -1.1144   -5.2686 C   0  0  2  0  0  0  0  0  0  0  0  0
   12.9155   -0.1846   -4.1994 C   0  0  2  0  0  0  0  0  0  0  0  0
   13.2605   -0.5063   -2.7845 N   0  0  0  0  0  0  0  0  0  0  0  0
   14.6939   -0.4798   -2.4306 C   0  0  1  0  0  0  0  0  0  0  0  0
   15.5281    0.5283   -3.2549 C   0  0  2  0  0  0  0  0  0  0  0  0
   17.0276    0.4911   -2.8977 C   0  0  2  0  0  0  0  0  0  0  0  0
   17.2573    0.6904   -1.3885 C   0  0  2  0  0  0  0  0  0  0  0  0
   16.4490   -0.3212   -0.5549 C   0  0  2  0  0  0  0  0  0  0  0  0
   14.9496   -0.2850   -0.9149 C   0  0  2  0  0  0  0  0  0  0  0  0
   12.2559   -0.5994   -1.8803 C   0  0  0  0  0  0  0  0  0  0  0  0
   11.1285   -0.1596   -2.1094 O   0  0  0  0  0  0  0  0  0  0  0  0
   12.3921   -1.3136   -0.5863 C   0  0  2  0  0  0  0  0  0  0  0  0
   11.1471   -1.8914    0.0175 C   0  0  2  0  0  0  0  0  0  0  0  0
   11.5690   -2.4910    1.3560 C   0  0  1  0  0  0  0  0  0  0  0  0
   12.7550   -3.3510    1.2710 N   0  0  0  0  0  0  0  0  0  0  0  0
   12.5420   -4.6210    0.5800 C   0  0  2  0  0  0  0  0  0  0  0  0
   14.0690   -3.0410    1.7170 C   0  0  0  0  0  0  0  0  0  0  0  0
   14.3290   -2.1188    2.6365 N   0  0  0  0  0  0  0  0  0  0  0  0
   15.1600   -3.6570    1.1820 N   0  0  0  0  0  0  0  0  0  0  0  0
   11.8087   -1.7045    2.0718 H   0  0  0  0  0  0  0  0  0  0  0  0
   16.0078   -3.1238    1.2952 H   0  0  0  0  0  0  0  0  0  0  0  0
   16.9879   -4.2389   -0.7178 H   0  0  0  0  0  0  0  0  0  0  0  0
   16.5688   -5.3517   -2.8405 H   0  0  0  0  0  0  0  0  0  0  0  0
   12.4578   -5.7957   -1.9211 H   0  0  0  0  0  0  0  0  0  0  0  0
   13.4206   -3.7762   -3.8679 H   0  0  0  0  0  0  0  0  0  0  0  0
   13.2094   -3.6335   -8.1130 H   0  0  0  0  0  0  0  0  0  0  0  0
   14.0561   -5.9056   -8.2181 H   0  0  0  0  0  0  0  0  0  0  0  0
   14.5762   -7.1769   -6.1879 H   0  0  0  0  0  0  0  0  0  0  0  0
   11.7802   -2.3571   -5.1320 H   0  0  0  0  0  0  0  0  0  0  0  0
   12.1757   -1.9052   -6.7538 H   0  0  0  0  0  0  0  0  0  0  0  0
   13.8803   -0.5031   -6.1128 H   0  0  0  0  0  0  0  0  0  0  0  0
   14.4763   -1.5621   -4.8900 H   0  0  0  0  0  0  0  0  0  0  0  0
   11.8361   -0.1641   -4.3679 H   0  0  0  0  0  0  0  0  0  0  0  0
   13.2168    0.8470   -4.3870 H   0  0  0  0  0  0  0  0  0  0  0  0
   15.0491   -1.4799   -2.6875 H   0  0  0  0  0  0  0  0  0  0  0  0
   15.1436    1.5353   -3.0812 H   0  0  0  0  0  0  0  0  0  0  0  0
   15.4586    0.3694   -4.3281 H   0  0  0  0  0  0  0  0  0  0  0  0
   17.5625    1.2598   -3.4589 H   0  0  0  0  0  0  0  0  0  0  0  0
   17.4557   -0.4622   -3.2131 H   0  0  0  0  0  0  0  0  0  0  0  0
   16.9684    1.7064   -1.1108 H   0  0  0  0  0  0  0  0  0  0  0  0
   18.3212    0.6082   -1.1585 H   0  0  0  0  0  0  0  0  0  0  0  0
   16.5929   -0.1154    0.5075 H   0  0  0  0  0  0  0  0  0  0  0  0
   16.8543   -1.3194   -0.7344 H   0  0  0  0  0  0  0  0  0  0  0  0
   14.6962   -1.1251   -0.2879 H   0  0  0  0  0  0  0  0  0  0  0  0
   14.5002    0.6375   -0.5400 H   0  0  0  0  0  0  0  0  0  0  0  0
   12.7599   -0.5965    0.1453 H   0  0  0  0  0  0  0  0  0  0  0  0
   13.0659   -2.1347   -0.8171 H   0  0  0  0  0  0  0  0  0  0  0  0
   10.7040   -2.6227   -0.6629 H   0  0  0  0  0  0  0  0  0  0  0  0
   10.3877   -1.1178    0.1607 H   0  0  0  0  0  0  0  0  0  0  0  0
   12.6436   -5.4915    1.2238 H   0  0  0  0  0  0  0  0  0  0  0  0
   11.5956   -4.6733    0.0460 H   0  0  0  0  0  0  0  0  0  0  0  0
   13.5935   -1.4850    2.9229 H   0  0  0  0  0  0  0  0  0  0  0  0
   15.1777   -2.1463    3.1855 H   0  0  0  0  0  0  0  0  0  0  0  0
   10.7403   -3.0793    1.7502 H   0  0  0  0  0  0  0  0  0  0  0  0
  1  6  1  0
  1 30  1  0
  1  2  2  0
  2 33  1  0
  2  3  1  0
  3  4  2  0
  3 36  1  0
  4  5  1  0
  4 37  1  0
  5  6  2  0
  5  7  1  0
  6 38  1  0
  7  8  1  0
  8 13  1  0
  8  9  2  0
  9 10  1  0
  9 39  1  0
 10 11  2  0
 10 14  1  0
 11 12  1  0
 11 40  1  0
 12 13  2  0
 12 41  1  0
 13 42  1  0
 14 15  1  0
 14 43  1  1
 14 44  1  0
 15 16  1  0
 15 45  1  6
 15 46  1  0
 16 17  1  0
 16 47  1  1
 16 48  1  0
 17 18  1  0
 17 24  1  0
 18 23  1  0
 18 19  1  0
 18 49  1  6
 19 20  1  0
 19 50  1  6
 19 51  1  0
 20 21  1  0
 20 52  1  6
 20 53  1  0
 21 22  1  0
 21 54  1  1
 21 55  1  0
 22 23  1  0
 22 56  1  1
 22 57  1  0
 23 58  1  1
 23 59  1  0
 24 25  2  0
 24 26  1  0
 26 27  1  0
 26 60  1  1
 26 61  1  0
 27 28  1  0
 27 62  1  6
 27 63  1  0
 28 34  1  1
 28 29  1  0
 28 68  1  0
 29 30  1  0
 29 31  1  0
 30 64  1  1
 30 65  1  0
 31 32  1  0
 31 33  2  0
 32 66  1  0
 32 67  1  0
 33 35  1  0
M  CHG  1  33   1
M  END
