ligand_17_enu
     RDKit          3D

 65 69  0  0  1  0  0  0  0  0999 V2000
   13.6384   -4.8282   -0.4150 C   0  0  0  0  0  0  0  0  0  0  0  0
   14.8969   -4.3281   -0.0657 C   0  0  0  0  0  0  0  0  0  0  0  0
   15.9781   -4.5499   -0.9438 C   0  0  0  0  0  0  0  0  0  0  0  0
   15.7462   -5.1810   -2.1611 C   0  0  0  0  0  0  0  0  0  0  0  0
   14.4861   -5.6011   -2.5557 C   0  0  0  0  0  0  0  0  0  0  0  0
   13.4371   -5.4280   -1.6491 C   0  0  0  0  0  0  0  0  0  0  0  0
   14.3460   -6.2730   -3.7481 O   0  0  0  0  0  0  0  0  0  0  0  0
   14.0569   -5.5598   -4.8778 C   0  0  0  0  0  0  0  0  0  0  0  0
   13.6001   -4.2735   -4.8064 C   0  0  0  0  0  0  0  0  0  0  0  0
   13.3008   -3.5759   -5.9592 C   0  0  0  0  0  0  0  0  0  0  0  0
   13.4660   -4.1610   -7.2050 C   0  0  0  0  0  0  0  0  0  0  0  0
   13.9300   -5.4340   -7.2540 C   0  0  0  0  0  0  0  0  0  0  0  0
   14.2220   -6.1590   -6.1200 C   0  0  0  0  0  0  0  0  0  0  0  0
   12.6251   -2.2163   -5.8091 C   0  0  2  0  0  0  0  0  0  0  0  0
   13.5592   -1.1110   -5.2671 C   0  0  1  0  0  0  0  0  0  0  0  0
   12.9155   -0.1846   -4.1995 C   0  0  2  0  0  0  0  0  0  0  0  0
   13.2238   -0.5436   -2.7966 N   0  0  0  0  0  0  0  0  0  0  0  0
   14.6937   -0.4799   -2.4305 C   0  0  1  0  0  0  0  0  0  0  0  0
   15.5282    0.5284   -3.2548 C   0  0  2  0  0  0  0  0  0  0  0  0
   17.0276    0.4912   -2.8994 C   0  0  2  0  0  0  0  0  0  0  0  0
   17.2573    0.6904   -1.3885 C   0  0  2  0  0  0  0  0  0  0  0  0
   16.4484   -0.3219   -0.5539 C   0  0  2  0  0  0  0  0  0  0  0  0
   14.9501   -0.2849   -0.9149 C   0  0  2  0  0  0  0  0  0  0  0  0
   12.1699   -1.1000   -2.0721 C   0  0  0  0  0  0  0  0  0  0  0  0
   11.0376   -1.2769   -2.5125 O   0  0  0  0  0  0  0  0  0  0  0  0
   12.4106   -1.5471   -0.6349 C   0  0  2  0  0  0  0  0  0  0  0  0
   11.5670   -2.4138    0.3117 C   0  0  1  0  0  0  0  0  0  0  0  0
   12.5086   -3.3316    1.0361 N   0  0  0  0  0  0  0  0  0  0  0  0
   12.4750   -4.7004    0.5425 C   0  0  2  0  0  0  0  0  0  0  0  0
   13.7186   -2.9013    1.5034 C   0  0  0  0  0  0  0  0  0  0  0  0
   13.7963   -1.8653    2.3324 N   0  0  0  0  0  0  0  0  0  0  0  0
   14.8757   -3.4932    1.0939 N   0  0  0  0  0  0  0  0  0  0  0  0
   11.0547   -1.8023    1.0556 H   0  0  0  0  0  0  0  0  0  0  0  0
   15.6332   -3.5275    1.7593 H   0  0  0  0  0  0  0  0  0  0  0  0
   16.9856   -4.2295   -0.7198 H   0  0  0  0  0  0  0  0  0  0  0  0
   16.5688   -5.3481   -2.8414 H   0  0  0  0  0  0  0  0  0  0  0  0
   12.4581   -5.7963   -1.9211 H   0  0  0  0  0  0  0  0  0  0  0  0
   13.4214   -3.7755   -3.8678 H   0  0  0  0  0  0  0  0  0  0  0  0
   13.2101   -3.6335   -8.1133 H   0  0  0  0  0  0  0  0  0  0  0  0
   14.0569   -5.9051   -8.2183 H   0  0  0  0  0  0  0  0  0  0  0  0
   14.5770   -7.1767   -6.1886 H   0  0  0  0  0  0  0  0  0  0  0  0
   11.7759   -2.3565   -5.1311 H   0  0  0  0  0  0  0  0  0  0  0  0
   12.1725   -1.9011   -6.7596 H   0  0  0  0  0  0  0  0  0  0  0  0
   14.4758   -1.5622   -4.8882 H   0  0  0  0  0  0  0  0  0  0  0  0
   13.8822   -0.5040   -6.1128 H   0  0  0  0  0  0  0  0  0  0  0  0
   11.8352   -0.1649   -4.3657 H   0  0  0  0  0  0  0  0  0  0  0  0
   13.2135    0.8481   -4.3876 H   0  0  0  0  0  0  0  0  0  0  0  0
   15.0486   -1.4804   -2.6857 H   0  0  0  0  0  0  0  0  0  0  0  0
   15.1433    1.5355   -3.0832 H   0  0  0  0  0  0  0  0  0  0  0  0
   15.4597    0.3663   -4.3277 H   0  0  0  0  0  0  0  0  0  0  0  0
   17.5638    1.2581   -3.4598 H   0  0  0  0  0  0  0  0  0  0  0  0
   17.4539   -0.4637   -3.2113 H   0  0  0  0  0  0  0  0  0  0  0  0
   16.9693    1.7066   -1.1106 H   0  0  0  0  0  0  0  0  0  0  0  0
   18.3212    0.6072   -1.1586 H   0  0  0  0  0  0  0  0  0  0  0  0
   16.5909   -0.1183    0.5078 H   0  0  0  0  0  0  0  0  0  0  0  0
   16.8484   -1.3218   -0.7333 H   0  0  0  0  0  0  0  0  0  0  0  0
   14.6225   -1.1239   -0.3260 H   0  0  0  0  0  0  0  0  0  0  0  0
   14.4929    0.6359   -0.5460 H   0  0  0  0  0  0  0  0  0  0  0  0
   12.6774   -0.6563   -0.0722 H   0  0  0  0  0  0  0  0  0  0  0  0
   13.2035   -2.2309   -0.9234 H   0  0  0  0  0  0  0  0  0  0  0  0
   12.6327   -5.3598    1.3967 H   0  0  0  0  0  0  0  0  0  0  0  0
   11.5096   -4.9458    0.0953 H   0  0  0  0  0  0  0  0  0  0  0  0
   14.6686   -1.3785    2.4920 H   0  0  0  0  0  0  0  0  0  0  0  0
   12.9831   -1.5884    2.8694 H   0  0  0  0  0  0  0  0  0  0  0  0
   10.7978   -2.9714   -0.2278 H   0  0  0  0  0  0  0  0  0  0  0  0
  1  6  1  0
  1 29  1  0
  1  2  2  0
  2 32  1  0
  2  3  1  0
  3  4  2  0
  3 35  1  0
  4  5  1  0
  4 36  1  0
  5  6  2  0
  5  7  1  0
  6 37  1  0
  7  8  1  0
  8 13  1  0
  8  9  2  0
  9 10  1  0
  9 38  1  0
 10 11  2  0
 10 14  1  0
 11 12  1  0
 11 39  1  0
 12 13  2  0
 12 40  1  0
 13 41  1  0
 14 15  1  0
 14 42  1  1
 14 43  1  0
 15 16  1  0
 15 44  1  1
 15 45  1  0
 16 17  1  0
 16 46  1  1
 16 47  1  0
 17 18  1  0
 17 24  1  0
 18 23  1  0
 18 19  1  0
 18 48  1  6
 19 20  1  0
 19 49  1  6
 19 50  1  0
 20 21  1  0
 20 51  1  6
 20 52  1  0
 21 22  1  0
 21 53  1  1
 21 54  1  0
 22 23  1  0
 22 55  1  1
 22 56  1  0
 23 57  1  1
 23 58  1  0
 24 25  2  0
 24 26  1  0
 26 27  1  0
 26 59  1  1
 26 60  1  0
 27 33  1  1
 27 28  1  0
 27 65  1  0
 28 29  1  0
 28 30  1  0
 29 61  1  1
 29 62  1  0
 30 31  1  0
 30 32  2  0
 31 63  1  0
 31 64  1  0
 32 34  1  0
M  CHG  1  32   1
M  END
