ligand_20_S
     RDKit          3D

 84 89  0  0  1  0  0  0  0  0999 V2000
   13.6770   -4.7910   -0.4110 C   0  0  0  0  0  0  0  0  0  0  0  0
   14.9530   -4.3290   -0.0310 C   0  0  0  0  0  0  0  0  0  0  0  0
   15.9780   -4.5500   -0.9440 C   0  0  0  0  0  0  0  0  0  0  0  0
   15.7460   -5.1810   -2.1610 C   0  0  0  0  0  0  0  0  0  0  0  0
   14.4860   -5.6010   -2.5560 C   0  0  0  0  0  0  0  0  0  0  0  0
   13.4370   -5.4280   -1.6490 C   0  0  0  0  0  0  0  0  0  0  0  0
   14.3460   -6.2730   -3.7480 O   0  0  0  0  0  0  0  0  0  0  0  0
   14.0570   -5.5600   -4.8780 C   0  0  0  0  0  0  0  0  0  0  0  0
   13.5980   -4.2670   -4.8120 C   0  0  0  0  0  0  0  0  0  0  0  0
   13.3010   -3.5760   -5.9590 C   0  0  0  0  0  0  0  0  0  0  0  0
   13.4660   -4.1610   -7.2050 C   0  0  0  0  0  0  0  0  0  0  0  0
   13.9300   -5.4340   -7.2540 C   0  0  0  0  0  0  0  0  0  0  0  0
   14.2220   -6.1590   -6.1200 C   0  0  0  0  0  0  0  0  0  0  0  0
   12.6256   -2.2165   -5.8091 C   0  0  2  0  0  0  0  0  0  0  0  0
   13.5578   -1.1144   -5.2686 C   0  0  2  0  0  0  0  0  0  0  0  0
   12.9155   -0.1846   -4.1994 C   0  0  2  0  0  0  0  0  0  0  0  0
   13.2605   -0.5063   -2.7845 N   0  0  0  0  0  0  0  0  0  0  0  0
   14.6939   -0.4798   -2.4306 C   0  0  1  0  0  0  0  0  0  0  0  0
   15.5281    0.5283   -3.2549 C   0  0  2  0  0  0  0  0  0  0  0  0
   17.0276    0.4911   -2.8977 C   0  0  2  0  0  0  0  0  0  0  0  0
   17.2573    0.6904   -1.3885 C   0  0  2  0  0  0  0  0  0  0  0  0
   16.4490   -0.3212   -0.5549 C   0  0  2  0  0  0  0  0  0  0  0  0
   14.9496   -0.2850   -0.9149 C   0  0  2  0  0  0  0  0  0  0  0  0
   12.2559   -0.5994   -1.8803 C   0  0  0  0  0  0  0  0  0  0  0  0
   11.1285   -0.1596   -2.1094 O   0  0  0  0  0  0  0  0  0  0  0  0
   12.4910   -1.3930   -0.5870 C   0  0  2  0  0  0  0  0  0  0  0  0
   11.1860   -1.9160   -0.0140 C   0  0  2  0  0  0  0  0  0  0  0  0
   11.5690   -2.4910    1.3560 C   0  0  2  0  0  0  0  0  0  0  0  0
   12.7550   -3.3510    1.2710 N   0  0  0  0  0  0  0  0  0  0  0  0
   12.5420   -4.6210    0.5800 C   0  0  2  0  0  0  0  0  0  0  0  0
   14.0690   -3.0410    1.7170 C   0  0  0  0  0  0  0  0  0  0  0  0
   14.3290   -2.1188    2.6365 N   0  0  0  0  0  0  0  0  0  0  0  0
   15.1600   -3.6570    1.1820 N   0  0  0  0  0  0  0  0  0  0  0  0
   10.4080   -3.3510    1.8530 C   0  0  1  0  0  0  0  0  0  0  0  0
   10.9920   -4.1960    2.9750 C   0  0  2  0  0  0  0  0  0  0  0  0
    9.9560   -5.0840    3.6420 C   0  0  2  0  0  0  0  0  0  0  0  0
    8.8030   -4.2450    4.1870 C   0  0  2  0  0  0  0  0  0  0  0  0
    8.2430   -3.4390    3.0240 C   0  0  2  0  0  0  0  0  0  0  0  0
    9.2940   -2.4830    2.4520 C   0  0  2  0  0  0  0  0  0  0  0  0
   11.8089   -1.6954    2.0629 H   0  0  0  0  0  0  0  0  0  0  0  0
   15.9581   -3.8423    1.7715 H   0  0  0  0  0  0  0  0  0  0  0  0
   16.9857   -4.2304   -0.7191 H   0  0  0  0  0  0  0  0  0  0  0  0
   16.5686   -5.3491   -2.8413 H   0  0  0  0  0  0  0  0  0  0  0  0
   12.4579   -5.7956   -1.9216 H   0  0  0  0  0  0  0  0  0  0  0  0
   13.4205   -3.7762   -3.8678 H   0  0  0  0  0  0  0  0  0  0  0  0
   13.2099   -3.6334   -8.1131 H   0  0  0  0  0  0  0  0  0  0  0  0
   14.0568   -5.9050   -8.2184 H   0  0  0  0  0  0  0  0  0  0  0  0
   14.5766   -7.1767   -6.1881 H   0  0  0  0  0  0  0  0  0  0  0  0
   11.7800   -2.3575   -5.1320 H   0  0  0  0  0  0  0  0  0  0  0  0
   12.1757   -1.9039   -6.7536 H   0  0  0  0  0  0  0  0  0  0  0  0
   13.8795   -0.5035   -6.1132 H   0  0  0  0  0  0  0  0  0  0  0  0
   14.4774   -1.5615   -4.8917 H   0  0  0  0  0  0  0  0  0  0  0  0
   11.8359   -0.1650   -4.3682 H   0  0  0  0  0  0  0  0  0  0  0  0
   13.2173    0.8474   -4.3862 H   0  0  0  0  0  0  0  0  0  0  0  0
   15.0503   -1.4796   -2.6873 H   0  0  0  0  0  0  0  0  0  0  0  0
   15.1432    1.5354   -3.0825 H   0  0  0  0  0  0  0  0  0  0  0  0
   15.4596    0.3676   -4.3280 H   0  0  0  0  0  0  0  0  0  0  0  0
   17.5629    1.2593   -3.4593 H   0  0  0  0  0  0  0  0  0  0  0  0
   17.4552   -0.4627   -3.2123 H   0  0  0  0  0  0  0  0  0  0  0  0
   16.9683    1.7063   -1.1108 H   0  0  0  0  0  0  0  0  0  0  0  0
   18.3211    0.6080   -1.1584 H   0  0  0  0  0  0  0  0  0  0  0  0
   16.5948   -0.1148    0.5072 H   0  0  0  0  0  0  0  0  0  0  0  0
   16.8592   -1.3182   -0.7342 H   0  0  0  0  0  0  0  0  0  0  0  0
   14.7492   -1.1429   -0.2928 H   0  0  0  0  0  0  0  0  0  0  0  0
   14.4910    0.6264   -0.5240 H   0  0  0  0  0  0  0  0  0  0  0  0
   12.8445   -0.6984    0.1731 H   0  0  0  0  0  0  0  0  0  0  0  0
   13.1519   -2.2147   -0.8512 H   0  0  0  0  0  0  0  0  0  0  0  0
   10.7385   -2.6511   -0.6873 H   0  0  0  0  0  0  0  0  0  0  0  0
   10.4412   -1.1240    0.1098 H   0  0  0  0  0  0  0  0  0  0  0  0
   12.6386   -5.4933    1.2222 H   0  0  0  0  0  0  0  0  0  0  0  0
   11.5965   -4.6714    0.0442 H   0  0  0  0  0  0  0  0  0  0  0  0
   15.2447   -1.7002    2.7244 H   0  0  0  0  0  0  0  0  0  0  0  0
   13.5808   -1.7807    3.2285 H   0  0  0  0  0  0  0  0  0  0  0  0
    9.9676   -3.9859    1.0805 H   0  0  0  0  0  0  0  0  0  0  0  0
   11.3860   -3.5288    3.7466 H   0  0  0  0  0  0  0  0  0  0  0  0
   11.7966   -4.8967    2.8323 H   0  0  0  0  0  0  0  0  0  0  0  0
   10.4062   -5.6491    4.4614 H   0  0  0  0  0  0  0  0  0  0  0  0
    9.5812   -5.8286    2.9359 H   0  0  0  0  0  0  0  0  0  0  0  0
    9.1390   -3.5877    4.9918 H   0  0  0  0  0  0  0  0  0  0  0  0
    8.0311   -4.8890    4.6131 H   0  0  0  0  0  0  0  0  0  0  0  0
    7.3903   -2.8563    3.3781 H   0  0  0  0  0  0  0  0  0  0  0  0
    7.8415   -4.0958    2.2488 H   0  0  0  0  0  0  0  0  0  0  0  0
    8.8352   -1.8570    1.6848 H   0  0  0  0  0  0  0  0  0  0  0  0
    9.6659   -1.8070    3.2251 H   0  0  0  0  0  0  0  0  0  0  0  0
  1  6  1  0
  1 30  1  0
  1  2  2  0
  2 33  1  0
  2  3  1  0
  3  4  2  0
  3 42  1  0
  4  5  1  0
  4 43  1  0
  5  6  2  0
  5  7  1  0
  6 44  1  0
  7  8  1  0
  8 13  1  0
  8  9  2  0
  9 10  1  0
  9 45  1  0
 10 11  2  0
 10 14  1  0
 11 12  1  0
 11 46  1  0
 12 13  2  0
 12 47  1  0
 13 48  1  0
 14 15  1  0
 14 49  1  1
 14 50  1  0
 15 16  1  0
 15 51  1  6
 15 52  1  0
 16 17  1  0
 16 53  1  1
 16 54  1  0
 17 18  1  0
 17 24  1  0
 18 23  1  0
 18 19  1  0
 18 55  1  6
 19 20  1  0
 19 56  1  6
 19 57  1  0
 20 21  1  0
 20 58  1  6
 20 59  1  0
 21 22  1  0
 21 60  1  1
 21 61  1  0
 22 23  1  0
 22 62  1  1
 22 63  1  0
 23 64  1  1
 23 65  1  0
 24 25  2  0
 24 26  1  0
 26 27  1  0
 26 66  1  1
 26 67  1  0
 27 28  1  0
 27 68  1  6
 27 69  1  0
 28 40  1  1
 28 29  1  0
 28 34  1  0
 29 30  1  0
 29 31  1  0
 30 70  1  1
 30 71  1  0
 31 32  1  0
 31 33  2  0
 32 72  1  0
 32 73  1  0
 33 41  1  0
 34 39  1  0
 34 35  1  0
 34 74  1  6
 35 36  1  0
 35 75  1  1
 35 76  1  0
 36 37  1  0
 36 77  1  1
 36 78  1  0
 37 38  1  0
 37 79  1  1
 37 80  1  0
 38 39  1  0
 38 81  1  1
 38 82  1  0
 39 83  1  6
 39 84  1  0
M  CHG  1  33   1
M  END
