22256_26_0_ligand
     RDKit          3D

 67 70  0  0  1  0  0  0  0  0999 V2000
   11.4892    0.6176   -0.8877 C   0  0  1  0  0  0  0  0  0  0  0  0
   11.1948    0.8682   -1.9064 H   0  0  0  0  0  0  0  0  0  0  0  0
   10.5930    0.5902   -0.2678 H   0  0  0  0  0  0  0  0  0  0  0  0
   12.1397    1.4121   -0.5234 H   0  0  0  0  0  0  0  0  0  0  0  0
   12.1875   -0.7362   -0.8555 C   0  0  0  0  0  0  0  0  0  0  0  0
   11.8224   -1.6379   -1.6098 O   0  0  0  0  0  0  0  0  0  0  0  0
   13.1926   -0.8607    0.0231 N   0  0  0  0  0  0  0  0  0  0  0  0
   13.4736   -0.0222    0.5231 H   0  0  0  0  0  0  0  0  0  0  0  0
   14.0613   -2.0280    0.1837 C   0  0  2  0  0  0  0  0  0  0  0  0
   13.7762   -2.7928   -0.5410 H   0  0  0  0  0  0  0  0  0  0  0  0
   13.8545   -2.6665    1.5794 C   0  0  1  0  0  0  0  0  0  0  0  0
   14.1348   -1.9631    2.3679 H   0  0  0  0  0  0  0  0  0  0  0  0
   15.5208   -1.6510   -0.1688 C   0  0  1  0  0  0  0  0  0  0  0  0
   15.9568   -1.0431    0.6243 H   0  0  0  0  0  0  0  0  0  0  0  0
   16.1305   -2.5542   -0.2205 H   0  0  0  0  0  0  0  0  0  0  0  0
   12.3945   -3.1239    1.7774 C   0  0  1  0  0  0  0  0  0  0  0  0
   11.7112   -2.2744    1.8136 H   0  0  0  0  0  0  0  0  0  0  0  0
   12.0913   -3.7956    0.9750 H   0  0  0  0  0  0  0  0  0  0  0  0
   15.6210   -0.9232   -1.5045 C   0  0  0  0  0  0  0  0  0  0  0  0
   14.6542   -3.8280    1.6788 O   0  0  0  0  0  0  0  0  0  0  0  0
   15.5766   -3.5675    1.9023 H   0  0  0  0  0  0  0  0  0  0  0  0
   12.2072   -3.8175    3.0711 N   0  0  1  0  0  0  0  0  0  0  0  0
   13.0210   -4.4099    3.2092 H   0  0  0  0  0  0  0  0  0  0  0  0
   15.9610    0.4457   -1.5582 C   0  0  0  0  0  0  0  0  0  0  0  0
   16.2049    0.9883   -0.6569 H   0  0  0  0  0  0  0  0  0  0  0  0
   12.2195   -3.1160    3.8202 H   0  0  0  0  0  0  0  0  0  0  0  0
   10.9871   -4.6566    3.2202 C   0  0  2  0  0  0  0  0  0  0  0  0
   15.9372    1.1326   -2.7893 C   0  0  0  0  0  0  0  0  0  0  0  0
   16.2294    2.4541   -2.8314 F   0  0  0  0  0  0  0  0  0  0  0  0
   11.0070   -5.2333    4.6525 C   0  0  1  0  0  0  0  0  0  0  0  0
   11.8923   -5.8333    4.8320 H   0  0  0  0  0  0  0  0  0  0  0  0
   11.1119   -4.4082    5.3523 H   0  0  0  0  0  0  0  0  0  0  0  0
   11.0458   -5.7976    2.1763 C   0  0  0  0  0  0  0  0  0  0  0  0
   15.5828    0.4543   -3.9721 C   0  0  0  0  0  0  0  0  0  0  0  0
   15.5606    0.9806   -4.9134 H   0  0  0  0  0  0  0  0  0  0  0  0
    9.7402   -6.0432    4.9863 C   0  0  1  0  0  0  0  0  0  0  0  0
   12.0602   -6.7741    2.2828 C   0  0  0  0  0  0  0  0  0  0  0  0
   15.2479   -0.9116   -3.9228 C   0  0  0  0  0  0  0  0  0  0  0  0
   14.8574   -1.5568   -5.0469 F   0  0  0  0  0  0  0  0  0  0  0  0
    9.6470   -6.8895    4.3035 H   0  0  0  0  0  0  0  0  0  0  0  0
    9.8247   -6.4807    5.9806 H   0  0  0  0  0  0  0  0  0  0  0  0
   12.7482   -6.7416    3.1015 H   0  0  0  0  0  0  0  0  0  0  0  0
    8.4931   -5.1535    4.8971 C   0  0  1  0  0  0  0  0  0  0  0  0
    7.5893   -5.7352    5.0865 H   0  0  0  0  0  0  0  0  0  0  0  0
    8.5250   -4.3913    5.6757 H   0  0  0  0  0  0  0  0  0  0  0  0
   12.2326   -7.7862    1.3234 C   0  0  0  0  0  0  0  0  0  0  0  0
   15.2861   -1.5996   -2.6964 C   0  0  0  0  0  0  0  0  0  0  0  0
   15.0176   -2.6423   -2.6749 H   0  0  0  0  0  0  0  0  0  0  0  0
    8.4017   -4.4775    3.5234 C   0  0  1  0  0  0  0  0  0  0  0  0
    8.1415   -5.2312    2.7813 H   0  0  0  0  0  0  0  0  0  0  0  0
    7.5728   -3.7681    3.5216 H   0  0  0  0  0  0  0  0  0  0  0  0
   11.3311   -7.8743    0.2475 C   0  0  0  0  0  0  0  0  0  0  0  0
   11.4297   -8.6612   -0.4872 H   0  0  0  0  0  0  0  0  0  0  0  0
   13.2649   -8.7523    1.4827 N   0  0  0  0  0  0  0  0  0  0  0  0
    9.7155   -3.7556    3.1463 C   0  0  1  0  0  0  0  0  0  0  0  0
    9.8401   -2.9147    3.8335 H   0  0  0  0  0  0  0  0  0  0  0  0
    9.6182   -3.2927    2.1699 H   0  0  0  0  0  0  0  0  0  0  0  0
   10.2901   -6.9324    0.1343 C   0  0  0  0  0  0  0  0  0  0  0  0
    9.5930   -7.0041   -0.6884 H   0  0  0  0  0  0  0  0  0  0  0  0
   13.7974   -9.4374    0.4535 N   0  0  0  0  0  0  0  0  0  0  0  0
   10.1635   -5.8908    1.0741 C   0  0  0  0  0  0  0  0  0  0  0  0
    9.3684   -5.1807    0.9349 H   0  0  0  0  0  0  0  0  0  0  0  0
   14.6810  -10.2135    1.0310 C   0  0  0  0  0  0  0  0  0  0  0  0
   15.3177  -10.8965    0.4848 H   0  0  0  0  0  0  0  0  0  0  0  0
   14.6499  -10.0092    2.4076 C   0  0  0  0  0  0  0  0  0  0  0  0
   15.2516  -10.5099    3.1560 H   0  0  0  0  0  0  0  0  0  0  0  0
   13.7567   -9.0935    2.6913 N   0  0  0  0  0  0  0  0  0  0  0  0
  1  5  1  0
  1  2  1  6
  1  3  1  0
  1  4  1  0
  5  7  1  0
  5  6  2  0
  7  9  1  0
  7  8  1  0
  9 11  1  0
  9 13  1  0
  9 10  1  6
 11 16  1  0
 11 20  1  0
 11 12  1  1
 13 19  1  0
 13 14  1  1
 13 15  1  0
 16 22  1  0
 16 17  1  1
 16 18  1  0
 19 24  1  0
 19 47  2  0
 20 21  1  0
 22 27  1  0
 22 23  1  1
 22 26  1  0
 24 28  2  0
 24 25  1  0
 27 30  1  0
 27 55  1  0
 27 33  1  6
 28 34  1  0
 28 29  1  0
 30 36  1  0
 30 31  1  6
 30 32  1  0
 33 37  1  0
 33 61  2  0
 34 38  2  0
 34 35  1  0
 36 43  1  0
 36 40  1  6
 36 41  1  0
 37 46  2  0
 37 42  1  0
 38 47  1  0
 38 39  1  0
 43 49  1  0
 43 44  1  1
 43 45  1  0
 46 52  1  0
 46 54  1  0
 47 48  1  0
 49 55  1  0
 49 50  1  6
 49 51  1  0
 52 58  2  0
 52 53  1  0
 54 60  1  0
 54 67  1  0
 55 56  1  1
 55 57  1  0
 58 61  1  0
 58 59  1  0
 60 63  2  0
 61 62  1  0
 63 65  1  0
 63 64  1  0
 65 67  2  0
 65 66  1  0
M  CHG  1  22   1
M  END
