27
     RDKit          3D

 52 55  0  0  1  0  0  0  0  0999 V2000
   32.6808    3.5870  204.1051 C   0  0  0  0  0  0  0  0  0  0  0  0
   31.9616    2.1577  202.8465 H   0  0  0  0  0  0  0  0  0  0  0  0
   33.2676    0.1146  204.1800 C   0  0  0  0  0  0  0  0  0  0  0  0
   32.6074   -1.3796  205.9656 C   0  0  0  0  0  0  0  0  0  0  0  0
   31.9113   -3.7499  205.4087 C   0  0  2  0  0  0  0  0  0  0  0  0
   32.7183    2.4052  203.4672 N   0  0  0  0  0  0  0  0  0  0  0  0
   33.7933    1.4255  203.5930 C   0  0  2  0  0  0  0  0  0  0  0  0
   33.1032   -0.0854  205.5234 C   0  0  0  0  0  0  0  0  0  0  0  0
   32.4082   -2.3589  205.0600 C   0  0  0  0  0  0  0  0  0  0  0  0
   32.6510   -2.1532  203.7294 N   0  0  0  0  0  0  0  0  0  0  0  0
   32.9716   -0.9431  203.1974 C   0  0  0  0  0  0  0  0  0  0  0  0
   33.0060   -0.8002  201.9785 O   0  0  0  0  0  0  0  0  0  0  0  0
   33.6325    4.0240  204.7596 O   0  0  0  0  0  0  0  0  0  0  0  0
   32.3788   -1.5109  207.0110 H   0  0  0  0  0  0  0  0  0  0  0  0
   31.8052   -3.8839  206.4880 H   0  0  0  0  0  0  0  0  0  0  0  0
   32.6054   -4.5081  205.0430 H   0  0  0  0  0  0  0  0  0  0  0  0
   30.9387   -3.9361  204.9503 H   0  0  0  0  0  0  0  0  0  0  0  0
   34.2798    1.2892  202.6235 H   0  0  0  0  0  0  0  0  0  0  0  0
   34.6039    1.7889  204.2268 H   0  0  0  0  0  0  0  0  0  0  0  0
   32.6062   -2.9187  203.0728 H   0  0  0  0  0  0  0  0  0  0  0  0
   33.4474    0.9598  206.5714 C   0  0  2  0  0  0  0  0  0  0  0  0
   32.8258    1.8448  206.4487 H   0  0  0  0  0  0  0  0  0  0  0  0
   34.4754    1.2882  206.4343 H   0  0  0  0  0  0  0  0  0  0  0  0
   33.3496    0.5837  207.5907 H   0  0  0  0  0  0  0  0  0  0  0  0
   29.0554    6.0119  203.7086 C   0  0  0  0  0  0  0  0  0  0  0  0
   29.4098    5.0508  202.7655 C   0  0  0  0  0  0  0  0  0  0  0  0
   30.5422    4.2522  202.9184 C   0  0  0  0  0  0  0  0  0  0  0  0
   31.3880    4.3625  204.0353 C   0  0  0  0  0  0  0  0  0  0  0  0
   31.0075    5.2905  205.0280 C   0  0  0  0  0  0  0  0  0  0  0  0
   29.8722    6.1219  204.8360 C   0  0  0  0  0  0  0  0  0  0  0  0
   29.8676    6.9952  205.9124 N   0  0  0  0  0  0  0  0  0  0  0  0
   30.7801    3.5685  202.1150 H   0  0  0  0  0  0  0  0  0  0  0  0
   31.5241    5.7005  206.2943 C   0  0  0  0  0  0  0  0  0  0  0  0
   30.8650    6.7165  206.7783 N   0  0  0  0  0  0  0  0  0  0  0  0
   32.3885    5.3090  206.8102 H   0  0  0  0  0  0  0  0  0  0  0  0
   28.3522    4.8732  201.1940 Br  0  0  0  0  0  0  0  0  0  0  0  0
   27.7532    9.6143  207.7735 C   0  0  1  0  0  0  0  0  0  0  0  0
   28.4762    8.2723  207.5541 C   0  0  2  0  0  0  0  0  0  0  0  0
   29.0337    8.1862  206.1136 C   0  0  1  0  0  0  0  0  0  0  0  0
   29.8524    9.4548  205.7801 C   0  0  2  0  0  0  0  0  0  0  0  0
   29.0640   10.7361  206.1119 C   0  0  2  0  0  0  0  0  0  0  0  0
   28.6211   10.7044  207.4692 O   0  0  0  0  0  0  0  0  0  0  0  0
   26.8608    9.6775  207.1539 H   0  0  0  0  0  0  0  0  0  0  0  0
   27.4139    9.6962  208.8061 H   0  0  0  0  0  0  0  0  0  0  0  0
   27.7981    7.4419  207.7527 H   0  0  0  0  0  0  0  0  0  0  0  0
   29.2844    8.1991  208.2834 H   0  0  0  0  0  0  0  0  0  0  0  0
   28.1865    8.1327  205.4268 H   0  0  0  0  0  0  0  0  0  0  0  0
   30.1381    9.4597  204.7280 H   0  0  0  0  0  0  0  0  0  0  0  0
   30.7819    9.4642  206.3522 H   0  0  0  0  0  0  0  0  0  0  0  0
   28.2086   10.8525  205.4441 H   0  0  0  0  0  0  0  0  0  0  0  0
   29.6938   11.6132  205.9663 H   0  0  0  0  0  0  0  0  0  0  0  0
   28.2090    6.6607  203.5497 H   0  0  0  0  0  0  0  0  0  0  0  0
  1  6  1  0
  1 13  2  0
  1 28  1  0
  2  6  1  0
  3  7  1  0
  3  8  2  0
  3 11  1  0
  4  8  1  0
  4  9  2  0
  4 14  1  0
  5  9  1  0
  5 15  1  1
  5 16  1  0
  5 17  1  0
  6  7  1  0
  7 18  1  6
  7 19  1  0
  8 21  1  0
  9 10  1  0
 10 11  1  0
 10 20  1  0
 11 12  2  0
 21 22  1  1
 21 23  1  0
 21 24  1  0
 25 26  1  0
 25 30  2  0
 25 52  1  0
 26 27  2  0
 26 36  1  0
 27 28  1  0
 27 32  1  0
 28 29  2  0
 29 30  1  0
 29 33  1  0
 30 31  1  0
 31 34  1  0
 31 39  1  0
 33 34  2  0
 33 35  1  0
 37 38  1  0
 37 42  1  0
 37 43  1  6
 37 44  1  0
 38 39  1  0
 38 45  1  1
 38 46  1  0
 39 40  1  0
 39 47  1  6
 40 41  1  0
 40 48  1  6
 40 49  1  0
 41 42  1  0
 41 50  1  6
 41 51  1  0
M  END
