29
     RDKit          3D

 56 58  0  0  1  0  0  0  0  0999 V2000
   32.3834    3.7331  204.2877 C   0  0  0  0  0  0  0  0  0  0  0  0
   31.3072    2.2733  203.3660 H   0  0  0  0  0  0  0  0  0  0  0  0
   32.9708    0.1318  203.9587 C   0  0  0  0  0  0  0  0  0  0  0  0
   32.6983   -1.6143  205.6200 C   0  0  0  0  0  0  0  0  0  0  0  0
   32.2026   -3.9755  204.8614 C   0  0  2  0  0  0  0  0  0  0  0  0
   32.2147    2.5151  203.7348 N   0  0  0  0  0  0  0  0  0  0  0  0
   33.2967    1.5537  203.4874 C   0  0  2  0  0  0  0  0  0  0  0  0
   33.0054   -0.2312  205.2791 C   0  0  0  0  0  0  0  0  0  0  0  0
   32.5163   -2.5102  204.6326 C   0  0  0  0  0  0  0  0  0  0  0  0
   32.6061   -2.1475  203.3209 N   0  0  0  0  0  0  0  0  0  0  0  0
   32.7073   -0.8600  202.8939 C   0  0  0  0  0  0  0  0  0  0  0  0
   32.6071   -0.6256  201.6930 O   0  0  0  0  0  0  0  0  0  0  0  0
   33.4846    4.1260  204.6759 O   0  0  0  0  0  0  0  0  0  0  0  0
   32.6092   -1.9110  206.6557 H   0  0  0  0  0  0  0  0  0  0  0  0
   32.2110   -4.2264  205.9237 H   0  0  0  0  0  0  0  0  0  0  0  0
   32.9359   -4.6028  204.3576 H   0  0  0  0  0  0  0  0  0  0  0  0
   31.2192   -4.2270  204.4608 H   0  0  0  0  0  0  0  0  0  0  0  0
   33.5747    1.5945  202.4319 H   0  0  0  0  0  0  0  0  0  0  0  0
   34.2120    1.8537  204.0028 H   0  0  0  0  0  0  0  0  0  0  0  0
   32.6061   -2.8548  202.5974 H   0  0  0  0  0  0  0  0  0  0  0  0
   33.3014    0.7490  206.4035 C   0  0  2  0  0  0  0  0  0  0  0  0
   34.3418    1.0776  206.3614 H   0  0  0  0  0  0  0  0  0  0  0  0
   33.0685    0.3362  207.3902 H   0  0  0  0  0  0  0  0  0  0  0  0
   32.6913    1.6442  206.2926 H   0  0  0  0  0  0  0  0  0  0  0  0
   29.0078    6.4328  204.1788 C   0  0  0  0  0  0  0  0  0  0  0  0
   29.2460    5.5408  203.1486 C   0  0  0  0  0  0  0  0  0  0  0  0
   30.2960    4.6403  203.2376 C   0  0  0  0  0  0  0  0  0  0  0  0
   31.1613    4.6378  204.3457 C   0  0  0  0  0  0  0  0  0  0  0  0
   30.9167    5.5585  205.4067 C   0  0  0  0  0  0  0  0  0  0  0  0
   29.8288    6.4711  205.3116 C   0  0  0  0  0  0  0  0  0  0  0  0
   29.5551    7.4398  206.3145 N   0  0  0  0  0  0  0  0  0  0  0  0
   30.4717    3.9850  202.3940 H   0  0  0  0  0  0  0  0  0  0  0  0
   31.8331    5.5886  206.6438 C   0  0  2  0  0  0  0  0  0  0  0  0
   31.6448    6.4293  207.3099 H   0  0  0  0  0  0  0  0  0  0  0  0
   28.1911    5.6286  201.5703 Br  0  0  0  0  0  0  0  0  0  0  0  0
   29.0431    8.7790  205.9534 C   0  0  1  0  0  0  0  0  0  0  0  0
   29.1873    9.8189  207.0775 C   0  0  1  0  0  0  0  0  0  0  0  0
   28.9966   11.1642  206.3774 C   0  0  2  0  0  0  0  0  0  0  0  0
   29.6269   10.9794  204.9928 C   0  0  1  0  0  0  0  0  0  0  0  0
   29.7848    9.4627  204.7889 C   0  0  2  0  0  0  0  0  0  0  0  0
   27.9844    8.7208  205.6957 H   0  0  0  0  0  0  0  0  0  0  0  0
   28.4657    9.6767  207.8830 H   0  0  0  0  0  0  0  0  0  0  0  0
   30.1880    9.7685  207.5125 H   0  0  0  0  0  0  0  0  0  0  0  0
   29.4420   11.9888  206.9338 H   0  0  0  0  0  0  0  0  0  0  0  0
   27.9319   11.3769  206.2722 H   0  0  0  0  0  0  0  0  0  0  0  0
   29.0064   11.4297  204.2169 H   0  0  0  0  0  0  0  0  0  0  0  0
   30.5980   11.4701  204.9397 H   0  0  0  0  0  0  0  0  0  0  0  0
   29.4047    9.1543  203.8179 H   0  0  0  0  0  0  0  0  0  0  0  0
   30.8423    9.2050  204.8247 H   0  0  0  0  0  0  0  0  0  0  0  0
   29.0065    6.8860  207.5480 C   0  0  2  0  0  0  0  0  0  0  0  0
   29.3604    7.4858  208.3787 H   0  0  0  0  0  0  0  0  0  0  0  0
   29.3436    5.8651  207.7383 H   0  0  0  0  0  0  0  0  0  0  0  0
   27.9173    6.8975  207.5568 H   0  0  0  0  0  0  0  0  0  0  0  0
   32.8859    5.6898  206.3873 H   0  0  0  0  0  0  0  0  0  0  0  0
   31.7151    4.6693  207.2172 H   0  0  0  0  0  0  0  0  0  0  0  0
   28.1860    7.1211  204.0769 H   0  0  0  0  0  0  0  0  0  0  0  0
  1  6  1  0
  1 13  2  0
  1 28  1  0
  2  6  1  0
  3  7  1  0
  3  8  2  0
  3 11  1  0
  4  8  1  0
  4  9  2  0
  4 14  1  0
  5  9  1  0
  5 15  1  1
  5 16  1  0
  5 17  1  0
  6  7  1  0
  7 18  1  6
  7 19  1  0
  8 21  1  0
  9 10  1  0
 10 11  1  0
 10 20  1  0
 11 12  2  0
 21 22  1  1
 21 23  1  0
 21 24  1  0
 25 26  1  0
 25 30  2  0
 25 56  1  0
 26 27  2  0
 26 35  1  0
 27 28  1  0
 27 32  1  0
 28 29  2  0
 29 30  1  0
 29 33  1  0
 30 31  1  0
 31 36  1  0
 31 50  1  0
 33 34  1  1
 33 54  1  0
 33 55  1  0
 36 37  1  0
 36 40  1  0
 36 41  1  6
 37 38  1  0
 37 42  1  1
 37 43  1  0
 38 39  1  0
 38 44  1  1
 38 45  1  0
 39 40  1  0
 39 46  1  6
 39 47  1  0
 40 48  1  6
 40 49  1  0
 50 51  1  1
 50 52  1  0
 50 53  1  0
M  END
