7
     RDKit          3D

 45 48  0  0  1  0  0  0  0  0999 V2000
   24.3118   57.0176   85.1663 C   0  0  2  0  0  0  0  0  0  0  0  0
   23.7895   57.6394   86.4490 C   0  0  2  0  0  0  0  0  0  0  0  0
   22.2711   57.6161   86.4635 C   0  0  1  0  0  0  0  0  0  0  0  0
   21.6871   56.2224   86.2522 C   0  0  2  0  0  0  0  0  0  0  0  0
   22.2881   55.5947   88.5215 C   0  0  0  0  0  0  0  0  0  0  0  0
   30.3361   57.5055   84.9122 C   0  0  0  0  0  0  0  0  0  0  0  0
   29.0605   57.6095   84.3940 C   0  0  0  0  0  0  0  0  0  0  0  0
   30.6119   56.6514   85.9613 C   0  0  0  0  0  0  0  0  0  0  0  0
   28.3132   55.9715   85.9872 C   0  0  0  0  0  0  0  0  0  0  0  0
   28.0566   56.8424   84.9390 C   0  0  0  0  0  0  0  0  0  0  0  0
   29.5979   55.8864   86.4914 C   0  0  0  0  0  0  0  0  0  0  0  0
   26.6962   56.9724   84.3851 C   0  0  0  0  0  0  0  0  0  0  0  0
   23.6889   55.6613   84.8641 C   0  0  2  0  0  0  0  0  0  0  0  0
   22.1780   55.6699   84.9207 C   0  0  2  0  0  0  0  0  0  0  0  0
   20.1791   58.2501   87.5519 C   0  0  2  0  0  0  0  0  0  0  0  0
   20.1658   56.3201   86.1888 C   0  0  2  0  0  0  0  0  0  0  0  0
   21.7005   58.2214   87.7243 C   0  0  1  0  0  0  0  0  0  0  0  0
   22.0694   55.2341   87.2921 N   0  0  0  0  0  0  0  0  0  0  0  0
   22.6208   54.6710   89.4725 N   0  0  0  0  0  0  0  0  0  0  0  0
   25.7286   56.8380   85.3531 N   0  0  0  0  0  0  0  0  0  0  0  0
   26.5251   57.1973   83.1946 O   0  0  0  0  0  0  0  0  0  0  0  0
   19.6481   56.9398   87.3725 O   0  0  0  0  0  0  0  0  0  0  0  0
   22.2221   57.2396   89.1738 S   0  0  0  0  0  0  0  0  0  0  0  0
   29.9701   54.8142   87.7873 Cl  0  0  0  0  0  0  0  0  0  0  0  0
   24.1353   57.6961   84.3317 H   0  0  0  0  0  0  0  0  0  0  0  0
   24.1375   58.6699   86.5208 H   0  0  0  0  0  0  0  0  0  0  0  0
   24.1694   57.0806   87.3043 H   0  0  0  0  0  0  0  0  0  0  0  0
   21.9338   58.2338   85.6312 H   0  0  0  0  0  0  0  0  0  0  0  0
   31.1378   58.0979   84.4966 H   0  0  0  0  0  0  0  0  0  0  0  0
   28.8641   58.2847   83.5743 H   0  0  0  0  0  0  0  0  0  0  0  0
   31.6147   56.5888   86.3574 H   0  0  0  0  0  0  0  0  0  0  0  0
   27.5149   55.3715   86.3985 H   0  0  0  0  0  0  0  0  0  0  0  0
   24.0731   54.9220   85.5670 H   0  0  0  0  0  0  0  0  0  0  0  0
   24.0122   55.3261   83.8786 H   0  0  0  0  0  0  0  0  0  0  0  0
   21.7879   56.2823   84.1077 H   0  0  0  0  0  0  0  0  0  0  0  0
   21.8041   54.6545   84.7890 H   0  0  0  0  0  0  0  0  0  0  0  0
   19.9233   58.8664   86.6900 H   0  0  0  0  0  0  0  0  0  0  0  0
   19.7232   58.7093   88.4291 H   0  0  0  0  0  0  0  0  0  0  0  0
   19.7418   55.3210   86.0871 H   0  0  0  0  0  0  0  0  0  0  0  0
   19.8757   56.9053   85.3162 H   0  0  0  0  0  0  0  0  0  0  0  0
   22.0688   59.2418   87.8309 H   0  0  0  0  0  0  0  0  0  0  0  0
   22.1584   54.2635   87.0270 H   0  0  0  0  0  0  0  0  0  0  0  0
   22.7883   54.9640   90.4244 H   0  0  0  0  0  0  0  0  0  0  0  0
   22.6992   53.6953   89.2232 H   0  0  0  0  0  0  0  0  0  0  0  0
   25.9894   56.5915   86.2972 H   0  0  0  0  0  0  0  0  0  0  0  0
  1  2  1  0
  1 13  1  0
  1 20  1  0
  1 25  1  6
  2  3  1  0
  2 26  1  1
  2 27  1  0
  3  4  1  0
  3 17  1  0
  3 28  1  6
  4 14  1  0
  4 16  1  0
  4 18  1  1
  5 18  2  0
  5 19  1  0
  5 23  1  0
  6  7  1  0
  6  8  2  0
  6 29  1  0
  7 10  2  0
  7 30  1  0
  8 11  1  0
  8 31  1  0
  9 10  1  0
  9 11  2  0
  9 32  1  0
 10 12  1  0
 11 24  1  0
 12 20  1  0
 12 21  2  0
 13 14  1  0
 13 33  1  1
 13 34  1  0
 14 35  1  6
 14 36  1  0
 15 17  1  0
 15 22  1  0
 15 37  1  6
 15 38  1  0
 16 22  1  0
 16 39  1  6
 16 40  1  0
 17 23  1  0
 17 41  1  1
 18 42  1  0
 19 43  1  0
 19 44  1  0
 20 45  1  0
M  CHG  1  18   1
M  END
