33
     RDKit          3D

 43 45  0  0  1  0  0  0  0  0999 V2000
   75.7005   -8.3852   71.6130 Cl  0  0  0  0  0  0  0  0  0  0  0  0
   75.0789   -8.7869   70.0563 C   0  0  0  0  0  0  0  0  0  0  0  0
   75.1489   -7.8599   69.0204 C   0  0  0  0  0  0  0  0  0  0  0  0
   74.6410   -8.1753   67.7631 C   0  0  0  0  0  0  0  0  0  0  0  0
   74.0387   -9.4206   67.5315 C   0  0  0  0  0  0  0  0  0  0  0  0
   73.4762   -9.7924   66.1600 C   0  0  2  0  0  0  0  0  0  0  0  0
   73.6963   -8.8331   65.0704 N   0  0  0  0  0  0  0  0  0  0  0  0
   74.7745   -8.7735   64.2669 C   0  0  0  0  0  0  0  0  0  0  0  0
   75.6048   -9.6816   64.2760 O   0  0  0  0  0  0  0  0  0  0  0  0
   74.9020   -7.6621   63.4859 N   0  0  0  0  0  0  0  0  0  0  0  0
   76.1664   -7.4521   62.7494 C   0  0  2  0  0  0  0  0  0  0  0  0
   75.8125   -7.1672   61.2765 C   0  0  2  0  0  0  0  0  0  0  0  0
   74.8402   -5.9752   61.0977 C   0  0  1  0  0  0  0  0  0  0  0  0
   74.2179   -5.4892   62.4243 C   0  0  2  0  0  0  0  0  0  0  0  0
   73.8472   -6.6180   63.4084 C   0  0  2  0  0  0  0  0  0  0  0  0
   75.3493   -4.8799   60.3259 O   0  0  0  0  0  0  0  0  0  0  0  0
   76.4309   -4.1205   60.7396 C   0  0  0  0  0  0  0  0  0  0  0  0
   77.2628   -4.5657   61.7246 N   0  0  0  0  0  0  0  0  0  0  0  0
   78.2752   -3.7340   62.0842 C   0  0  0  0  0  0  0  0  0  0  0  0
   78.4576   -2.4829   61.4929 C   0  0  0  0  0  0  0  0  0  0  0  0
   77.5601   -2.1286   60.4870 C   0  0  0  0  0  0  0  0  0  0  0  0
   76.5469   -2.9360   60.0940 N   0  0  0  0  0  0  0  0  0  0  0  0
   73.9548  -10.3439   68.5892 C   0  0  0  0  0  0  0  0  0  0  0  0
   73.1947  -11.8871   68.3895 Cl  0  0  0  0  0  0  0  0  0  0  0  0
   74.4831  -10.0273   69.8408 C   0  0  0  0  0  0  0  0  0  0  0  0
   75.5672   -6.8823   69.2010 H   0  0  0  0  0  0  0  0  0  0  0  0
   74.7029   -7.4307   66.9829 H   0  0  0  0  0  0  0  0  0  0  0  0
   72.4013   -9.9424   66.2607 H   0  0  0  0  0  0  0  0  0  0  0  0
   73.9110  -10.7584   65.9167 H   0  0  0  0  0  0  0  0  0  0  0  0
   73.0664   -8.0390   65.0786 H   0  0  0  0  0  0  0  0  0  0  0  0
   76.8384   -8.3070   62.8024 H   0  0  0  0  0  0  0  0  0  0  0  0
   76.6896   -6.6097   63.2011 H   0  0  0  0  0  0  0  0  0  0  0  0
   75.3693   -8.0660   60.8512 H   0  0  0  0  0  0  0  0  0  0  0  0
   76.7276   -7.0084   60.7053 H   0  0  0  0  0  0  0  0  0  0  0  0
   74.0155   -6.3333   60.4785 H   0  0  0  0  0  0  0  0  0  0  0  0
   73.3404   -4.8745   62.2212 H   0  0  0  0  0  0  0  0  0  0  0  0
   74.9176   -4.8312   62.9341 H   0  0  0  0  0  0  0  0  0  0  0  0
   73.7291   -6.1692   64.3923 H   0  0  0  0  0  0  0  0  0  0  0  0
   72.9002   -7.0775   63.1207 H   0  0  0  0  0  0  0  0  0  0  0  0
   78.9351   -4.0772   62.8676 H   0  0  0  0  0  0  0  0  0  0  0  0
   79.2491   -1.8165   61.7944 H   0  0  0  0  0  0  0  0  0  0  0  0
   77.6263   -1.1815   59.9782 H   0  0  0  0  0  0  0  0  0  0  0  0
   74.4186  -10.7419   70.6485 H   0  0  0  0  0  0  0  0  0  0  0  0
  1  2  1  0
  2  3  2  0
  2 25  1  0
  3  4  1  0
  3 26  1  0
  4  5  2  0
  4 27  1  0
  5  6  1  0
  5 23  1  0
  6  7  1  0
  6 28  1  1
  6 29  1  0
  7  8  1  0
  7 30  1  0
  8  9  2  0
  8 10  1  0
 10 11  1  0
 10 15  1  0
 11 12  1  0
 11 31  1  6
 11 32  1  0
 12 13  1  0
 12 33  1  6
 12 34  1  0
 13 14  1  0
 13 16  1  0
 13 35  1  6
 14 15  1  0
 14 36  1  6
 14 37  1  0
 15 38  1  1
 15 39  1  0
 16 17  1  0
 17 18  2  0
 17 22  1  0
 18 19  1  0
 19 20  2  0
 19 40  1  0
 20 21  1  0
 20 41  1  0
 21 22  2  0
 21 42  1  0
 23 24  1  0
 23 25  2  0
 25 43  1  0
M  END
