19charg
     RDKit          3D

 36 37  0  0  1  0  0  0  0  0999 V2000
   75.7005   -8.3852   71.6130 Cl  0  0  0  0  0  0  0  0  0  0  0  0
   75.0789   -8.7869   70.0563 C   0  0  0  0  0  0  0  0  0  0  0  0
   75.1489   -7.8599   69.0204 C   0  0  0  0  0  0  0  0  0  0  0  0
   74.6410   -8.1753   67.7631 C   0  0  0  0  0  0  0  0  0  0  0  0
   74.0387   -9.4206   67.5315 C   0  0  0  0  0  0  0  0  0  0  0  0
   73.4762   -9.7924   66.1600 C   0  0  2  0  0  0  0  0  0  0  0  0
   73.6963   -8.8331   65.0704 N   0  0  0  0  0  0  0  0  0  0  0  0
   74.7745   -8.7735   64.2669 C   0  0  0  0  0  0  0  0  0  0  0  0
   75.6048   -9.6816   64.2760 O   0  0  0  0  0  0  0  0  0  0  0  0
   74.9020   -7.6621   63.4859 N   0  0  0  0  0  0  0  0  0  0  0  0
   76.1664   -7.4521   62.7494 C   0  0  2  0  0  0  0  0  0  0  0  0
   75.8125   -7.1672   61.2765 C   0  0  2  0  0  0  0  0  0  0  0  0
   74.8402   -5.9752   61.0977 C   0  0  1  0  0  0  0  0  0  0  0  0
   74.2179   -5.4892   62.4243 C   0  0  2  0  0  0  0  0  0  0  0  0
   73.8472   -6.6180   63.4084 C   0  0  2  0  0  0  0  0  0  0  0  0
   73.9548  -10.3439   68.5892 C   0  0  0  0  0  0  0  0  0  0  0  0
   73.1947  -11.8871   68.3895 Cl  0  0  0  0  0  0  0  0  0  0  0  0
   74.4831  -10.0273   69.8408 C   0  0  0  0  0  0  0  0  0  0  0  0
   75.5672   -6.8823   69.2010 H   0  0  0  0  0  0  0  0  0  0  0  0
   74.7029   -7.4307   66.9829 H   0  0  0  0  0  0  0  0  0  0  0  0
   72.4013   -9.9424   66.2607 H   0  0  0  0  0  0  0  0  0  0  0  0
   73.9110  -10.7584   65.9167 H   0  0  0  0  0  0  0  0  0  0  0  0
   73.0664   -8.0390   65.0786 H   0  0  0  0  0  0  0  0  0  0  0  0
   76.8384   -8.3070   62.8024 H   0  0  0  0  0  0  0  0  0  0  0  0
   76.6896   -6.6097   63.2011 H   0  0  0  0  0  0  0  0  0  0  0  0
   75.3693   -8.0660   60.8512 H   0  0  0  0  0  0  0  0  0  0  0  0
   76.7276   -7.0084   60.7053 H   0  0  0  0  0  0  0  0  0  0  0  0
   74.0155   -6.3333   60.4785 H   0  0  0  0  0  0  0  0  0  0  0  0
   73.3404   -4.8745   62.2212 H   0  0  0  0  0  0  0  0  0  0  0  0
   74.9176   -4.8312   62.9341 H   0  0  0  0  0  0  0  0  0  0  0  0
   73.7291   -6.1692   64.3923 H   0  0  0  0  0  0  0  0  0  0  0  0
   72.9002   -7.0775   63.1207 H   0  0  0  0  0  0  0  0  0  0  0  0
   74.4186  -10.7419   70.6485 H   0  0  0  0  0  0  0  0  0  0  0  0
   75.3493   -4.8799   60.3259 C   0  0  0  0  0  0  0  0  0  0  0  0
   76.3614   -5.3010   59.5495 O   0  0  0  0  0  0  0  0  0  0  0  0
   74.9433   -3.7386   60.3512 O   0  0  0  0  0  0  0  0  0  0  0  0
  1  2  1  0
  2  3  2  0
  2 18  1  0
  3  4  1  0
  3 19  1  0
  4  5  2  0
  4 20  1  0
  5  6  1  0
  5 16  1  0
  6  7  1  0
  6 21  1  1
  6 22  1  0
  7  8  1  0
  7 23  1  0
  8  9  2  0
  8 10  1  0
 10 11  1  0
 10 15  1  0
 11 12  1  0
 11 24  1  6
 11 25  1  0
 12 13  1  0
 12 26  1  6
 12 27  1  0
 13 14  1  0
 13 28  1  6
 13 34  1  0
 14 15  1  0
 14 29  1  6
 14 30  1  0
 15 31  1  1
 15 32  1  0
 16 17  1  0
 16 18  2  0
 18 33  1  0
 34 35  1  0
 34 36  2  0
M  CHG  1  35  -1
M  END
