39_0_ligand
     RDKit          3D

 75 78  0  0  1  0  0  0  0  0999 V2000
   11.4892    0.6176   -0.8877 C   0  0  1  0  0  0  0  0  0  0  0  0
   11.1254    0.8332   -1.8919 H   0  0  0  0  0  0  0  0  0  0  0  0
   10.6390    0.6163   -0.2058 H   0  0  0  0  0  0  0  0  0  0  0  0
   12.1675    1.4201   -0.5979 H   0  0  0  0  0  0  0  0  0  0  0  0
   12.1875   -0.7362   -0.8555 C   0  0  0  0  0  0  0  0  0  0  0  0
   11.8224   -1.6379   -1.6098 O   0  0  0  0  0  0  0  0  0  0  0  0
   13.1926   -0.8607    0.0231 N   0  0  0  0  0  0  0  0  0  0  0  0
   13.4836   -0.0219    0.5208 H   0  0  0  0  0  0  0  0  0  0  0  0
   14.0613   -2.0280    0.1837 C   0  0  2  0  0  0  0  0  0  0  0  0
   13.7787   -2.7985   -0.5396 H   0  0  0  0  0  0  0  0  0  0  0  0
   13.8545   -2.6665    1.5794 C   0  0  1  0  0  0  0  0  0  0  0  0
   14.1333   -1.9607    2.3666 H   0  0  0  0  0  0  0  0  0  0  0  0
   15.5208   -1.6510   -0.1688 C   0  0  1  0  0  0  0  0  0  0  0  0
   15.9562   -1.0431    0.6253 H   0  0  0  0  0  0  0  0  0  0  0  0
   16.1303   -2.5543   -0.2237 H   0  0  0  0  0  0  0  0  0  0  0  0
   12.3918   -3.1221    1.7762 C   0  0  1  0  0  0  0  0  0  0  0  0
   11.7062   -2.2756    1.8071 H   0  0  0  0  0  0  0  0  0  0  0  0
   12.0881   -3.7945    0.9740 H   0  0  0  0  0  0  0  0  0  0  0  0
   15.6210   -0.9232   -1.5045 C   0  0  0  0  0  0  0  0  0  0  0  0
   14.6898   -3.8583    1.6783 O   0  0  0  0  0  0  0  0  0  0  0  0
   15.6143   -3.5635    1.8332 H   0  0  0  0  0  0  0  0  0  0  0  0
   12.2077   -3.8172    3.0724 N   0  0  1  0  0  0  0  0  0  0  0  0
   13.0198   -4.4099    3.2060 H   0  0  0  0  0  0  0  0  0  0  0  0
   15.9610    0.4457   -1.5582 C   0  0  0  0  0  0  0  0  0  0  0  0
   16.2059    0.9873   -0.6566 H   0  0  0  0  0  0  0  0  0  0  0  0
   12.2285   -3.1137    3.8246 H   0  0  0  0  0  0  0  0  0  0  0  0
   10.9864   -4.6582    3.2198 C   0  0  2  0  0  0  0  0  0  0  0  0
   15.9372    1.1326   -2.7893 C   0  0  0  0  0  0  0  0  0  0  0  0
   16.2294    2.4541   -2.8314 F   0  0  0  0  0  0  0  0  0  0  0  0
   11.0067   -5.2328    4.6525 C   0  0  1  0  0  0  0  0  0  0  0  0
   11.9908   -5.5071    4.9490 H   0  0  0  0  0  0  0  0  0  0  0  0
   10.9822   -4.3451    5.2671 H   0  0  0  0  0  0  0  0  0  0  0  0
   11.0460   -5.7978    2.1760 C   0  0  0  0  0  0  0  0  0  0  0  0
   15.5828    0.4543   -3.9721 C   0  0  0  0  0  0  0  0  0  0  0  0
   15.5617    0.9800   -4.9140 H   0  0  0  0  0  0  0  0  0  0  0  0
    9.7405   -6.0430    4.9862 C   0  0  1  0  0  0  0  0  0  0  0  0
   12.0599   -6.7742    2.2823 C   0  0  0  0  0  0  0  0  0  0  0  0
   15.2479   -0.9116   -3.9228 C   0  0  0  0  0  0  0  0  0  0  0  0
   14.8574   -1.5568   -5.0469 F   0  0  0  0  0  0  0  0  0  0  0  0
    9.6403   -6.8715    4.2848 H   0  0  0  0  0  0  0  0  0  0  0  0
    9.8024   -6.5079    5.9653 H   0  0  0  0  0  0  0  0  0  0  0  0
   12.7235   -6.7473    3.1218 H   0  0  0  0  0  0  0  0  0  0  0  0
    8.4931   -5.1535    4.8971 C   0  0  1  0  0  0  0  0  0  0  0  0
    7.6005   -5.7568    5.0670 H   0  0  0  0  0  0  0  0  0  0  0  0
    8.4686   -4.3945    5.6710 H   0  0  0  0  0  0  0  0  0  0  0  0
   12.1765   -7.8536    1.3754 C   0  0  0  0  0  0  0  0  0  0  0  0
   15.2861   -1.5996   -2.6964 C   0  0  0  0  0  0  0  0  0  0  0  0
   15.0146   -2.6430   -2.6722 H   0  0  0  0  0  0  0  0  0  0  0  0
    8.4017   -4.4775    3.5234 C   0  0  1  0  0  0  0  0  0  0  0  0
    8.1438   -5.2310    2.7804 H   0  0  0  0  0  0  0  0  0  0  0  0
    7.5737   -3.7670    3.5146 H   0  0  0  0  0  0  0  0  0  0  0  0
   11.3308   -7.8738    0.2478 C   0  0  0  0  0  0  0  0  0  0  0  0
   11.3590   -8.7195   -0.4115 H   0  0  0  0  0  0  0  0  0  0  0  0
    9.7155   -3.7556    3.1463 C   0  0  1  0  0  0  0  0  0  0  0  0
    9.8394   -2.9054    3.8222 H   0  0  0  0  0  0  0  0  0  0  0  0
    9.6202   -3.3051    2.1632 H   0  0  0  0  0  0  0  0  0  0  0  0
   10.2905   -6.9323    0.1345 C   0  0  0  0  0  0  0  0  0  0  0  0
    9.5721   -7.0237   -0.6666 H   0  0  0  0  0  0  0  0  0  0  0  0
   10.1637   -5.8910    1.0743 C   0  0  0  0  0  0  0  0  0  0  0  0
    9.3439   -5.2111    0.9642 H   0  0  0  0  0  0  0  0  0  0  0  0
   15.3820   -9.5311    1.3868 C   0  0  2  0  0  0  0  0  0  0  0  0
   14.3480   -8.7089    2.1918 C   0  0  2  0  0  0  0  0  0  0  0  0
   13.0060   -8.9598    1.6359 N   0  0  0  0  0  0  0  0  0  0  0  0
   12.5198  -10.2455    1.6282 C   0  0  0  0  0  0  0  0  0  0  0  0
   13.6151  -11.3165    1.7466 C   0  0  2  0  0  0  0  0  0  0  0  0
   14.8498  -10.8958    0.9246 C   0  0  1  0  0  0  0  0  0  0  0  0
   16.2600   -9.6916    2.0134 H   0  0  0  0  0  0  0  0  0  0  0  0
   15.7181   -8.9594    0.5214 H   0  0  0  0  0  0  0  0  0  0  0  0
   14.5807   -7.6475    2.1498 H   0  0  0  0  0  0  0  0  0  0  0  0
   14.3566   -8.9978    3.2441 H   0  0  0  0  0  0  0  0  0  0  0  0
   13.2116  -12.2645    1.4032 H   0  0  0  0  0  0  0  0  0  0  0  0
   13.8509  -11.4333    2.8001 H   0  0  0  0  0  0  0  0  0  0  0  0
   14.5879  -10.8688   -0.1348 H   0  0  0  0  0  0  0  0  0  0  0  0
   15.6410  -11.6296    1.0214 H   0  0  0  0  0  0  0  0  0  0  0  0
   11.3377  -10.5702    1.4877 O   0  0  0  0  0  0  0  0  0  0  0  0
  1  5  1  0
  1  2  1  6
  1  3  1  0
  1  4  1  0
  5  7  1  0
  5  6  2  0
  7  9  1  0
  7  8  1  0
  9 11  1  0
  9 13  1  0
  9 10  1  6
 11 16  1  0
 11 20  1  0
 11 12  1  1
 13 19  1  0
 13 14  1  1
 13 15  1  0
 16 22  1  0
 16 17  1  1
 16 18  1  0
 19 24  1  0
 19 47  2  0
 20 21  1  0
 22 27  1  0
 22 23  1  1
 22 26  1  0
 24 28  2  0
 24 25  1  0
 27 30  1  0
 27 54  1  0
 27 33  1  6
 28 34  1  0
 28 29  1  0
 30 36  1  0
 30 31  1  6
 30 32  1  0
 33 37  1  0
 33 59  2  0
 34 38  2  0
 34 35  1  0
 36 43  1  0
 36 40  1  6
 36 41  1  0
 37 46  2  0
 37 42  1  0
 38 47  1  0
 38 39  1  0
 43 49  1  0
 43 44  1  1
 43 45  1  0
 46 52  1  0
 46 63  1  0
 47 48  1  0
 49 54  1  0
 49 50  1  6
 49 51  1  0
 52 57  2  0
 52 53  1  0
 54 55  1  1
 54 56  1  0
 57 59  1  0
 57 58  1  0
 59 60  1  0
 61 62  1  0
 61 66  1  0
 61 67  1  1
 61 68  1  0
 62 63  1  0
 62 69  1  1
 62 70  1  0
 63 64  1  0
 64 65  1  0
 64 75  2  0
 65 66  1  0
 65 71  1  6
 65 72  1  0
 66 73  1  6
 66 74  1  0
M  CHG  1  22   1
M  END
