33_0_ligand
     RDKit          3D

 72 75  0  0  1  0  0  0  0  0999 V2000
   11.4892    0.6176   -0.8877 C   0  0  1  0  0  0  0  0  0  0  0  0
   11.1279    0.8344   -1.8925 H   0  0  0  0  0  0  0  0  0  0  0  0
   10.6373    0.6155   -0.2080 H   0  0  0  0  0  0  0  0  0  0  0  0
   12.1667    1.4198   -0.5953 H   0  0  0  0  0  0  0  0  0  0  0  0
   12.1875   -0.7362   -0.8555 C   0  0  0  0  0  0  0  0  0  0  0  0
   11.8224   -1.6379   -1.6098 O   0  0  0  0  0  0  0  0  0  0  0  0
   13.1926   -0.8607    0.0231 N   0  0  0  0  0  0  0  0  0  0  0  0
   13.4835   -0.0221    0.5211 H   0  0  0  0  0  0  0  0  0  0  0  0
   14.0613   -2.0280    0.1837 C   0  0  2  0  0  0  0  0  0  0  0  0
   13.7785   -2.7980   -0.5401 H   0  0  0  0  0  0  0  0  0  0  0  0
   13.8545   -2.6665    1.5794 C   0  0  1  0  0  0  0  0  0  0  0  0
   14.1342   -1.9615    2.3670 H   0  0  0  0  0  0  0  0  0  0  0  0
   15.5208   -1.6510   -0.1688 C   0  0  1  0  0  0  0  0  0  0  0  0
   15.9561   -1.0430    0.6253 H   0  0  0  0  0  0  0  0  0  0  0  0
   16.1302   -2.5543   -0.2235 H   0  0  0  0  0  0  0  0  0  0  0  0
   12.3935   -3.1232    1.7770 C   0  0  1  0  0  0  0  0  0  0  0  0
   11.7080   -2.2765    1.8080 H   0  0  0  0  0  0  0  0  0  0  0  0
   12.0888   -3.7948    0.9745 H   0  0  0  0  0  0  0  0  0  0  0  0
   15.6210   -0.9232   -1.5045 C   0  0  0  0  0  0  0  0  0  0  0  0
   14.6678   -3.8395    1.6786 O   0  0  0  0  0  0  0  0  0  0  0  0
   15.5930   -3.5492    1.8359 H   0  0  0  0  0  0  0  0  0  0  0  0
   12.2074   -3.8174    3.0715 N   0  0  1  0  0  0  0  0  0  0  0  0
   13.0193   -4.4104    3.2047 H   0  0  0  0  0  0  0  0  0  0  0  0
   15.9610    0.4457   -1.5582 C   0  0  0  0  0  0  0  0  0  0  0  0
   16.2059    0.9873   -0.6566 H   0  0  0  0  0  0  0  0  0  0  0  0
   12.2290   -3.1140    3.8237 H   0  0  0  0  0  0  0  0  0  0  0  0
   10.9869   -4.6571    3.2201 C   0  0  2  0  0  0  0  0  0  0  0  0
   15.9372    1.1326   -2.7893 C   0  0  0  0  0  0  0  0  0  0  0  0
   16.2294    2.4541   -2.8314 F   0  0  0  0  0  0  0  0  0  0  0  0
   11.0069   -5.2331    4.6525 C   0  0  1  0  0  0  0  0  0  0  0  0
   11.9911   -5.5072    4.9489 H   0  0  0  0  0  0  0  0  0  0  0  0
   10.9826   -4.3456    5.2674 H   0  0  0  0  0  0  0  0  0  0  0  0
   11.0458   -5.7977    2.1762 C   0  0  0  0  0  0  0  0  0  0  0  0
   15.5828    0.4543   -3.9721 C   0  0  0  0  0  0  0  0  0  0  0  0
   15.5617    0.9800   -4.9140 H   0  0  0  0  0  0  0  0  0  0  0  0
    9.7403   -6.0431    4.9863 C   0  0  1  0  0  0  0  0  0  0  0  0
   12.0601   -6.7741    2.2826 C   0  0  0  0  0  0  0  0  0  0  0  0
   15.2479   -0.9116   -3.9228 C   0  0  0  0  0  0  0  0  0  0  0  0
   14.8574   -1.5568   -5.0469 F   0  0  0  0  0  0  0  0  0  0  0  0
    9.6397   -6.8715    4.2848 H   0  0  0  0  0  0  0  0  0  0  0  0
    9.8021   -6.5081    5.9653 H   0  0  0  0  0  0  0  0  0  0  0  0
   12.7341   -6.7272    3.1119 H   0  0  0  0  0  0  0  0  0  0  0  0
    8.4931   -5.1535    4.8971 C   0  0  1  0  0  0  0  0  0  0  0  0
    7.6004   -5.7565    5.0672 H   0  0  0  0  0  0  0  0  0  0  0  0
    8.4688   -4.3944    5.6709 H   0  0  0  0  0  0  0  0  0  0  0  0
   12.1918   -7.8317    1.3603 C   0  0  0  0  0  0  0  0  0  0  0  0
   15.2861   -1.5996   -2.6964 C   0  0  0  0  0  0  0  0  0  0  0  0
   15.0146   -2.6429   -2.6722 H   0  0  0  0  0  0  0  0  0  0  0  0
    8.4017   -4.4775    3.5234 C   0  0  1  0  0  0  0  0  0  0  0  0
    8.1438   -5.2309    2.7804 H   0  0  0  0  0  0  0  0  0  0  0  0
    7.5737   -3.7670    3.5146 H   0  0  0  0  0  0  0  0  0  0  0  0
   11.3310   -7.8741    0.2476 C   0  0  0  0  0  0  0  0  0  0  0  0
   11.3694   -8.6981   -0.4333 H   0  0  0  0  0  0  0  0  0  0  0  0
    9.7155   -3.7556    3.1463 C   0  0  1  0  0  0  0  0  0  0  0  0
    9.8391   -2.9054    3.8223 H   0  0  0  0  0  0  0  0  0  0  0  0
    9.6203   -3.3049    2.1632 H   0  0  0  0  0  0  0  0  0  0  0  0
   10.2903   -6.9323    0.1344 C   0  0  0  0  0  0  0  0  0  0  0  0
    9.5729   -7.0227   -0.6678 H   0  0  0  0  0  0  0  0  0  0  0  0
   10.1636   -5.8909    1.0742 C   0  0  0  0  0  0  0  0  0  0  0  0
    9.3441   -5.2106    0.9638 H   0  0  0  0  0  0  0  0  0  0  0  0
   13.1408   -8.8569    1.5738 N   0  0  0  0  0  0  0  0  0  0  0  0
   14.2917   -8.6998    2.4573 C   0  0  2  0  0  0  0  0  0  0  0  0
   15.2548   -9.7594    1.9850 C   0  0  1  0  0  0  0  0  0  0  0  0
   14.3075  -10.8575    1.5660 C   0  0  2  0  0  0  0  0  0  0  0  0
   13.0115  -10.1627    1.1933 C   0  0  0  0  0  0  0  0  0  0  0  0
   13.9832   -8.8573    3.4906 H   0  0  0  0  0  0  0  0  0  0  0  0
   14.6974   -7.6978    2.3716 H   0  0  0  0  0  0  0  0  0  0  0  0
   15.8280   -9.4087    1.1240 H   0  0  0  0  0  0  0  0  0  0  0  0
   15.9566  -10.0634    2.7622 H   0  0  0  0  0  0  0  0  0  0  0  0
   12.0626  -10.7374    0.6580 O   0  0  0  0  0  0  0  0  0  0  0  0
   14.0714  -11.5284    2.3904 H   0  0  0  0  0  0  0  0  0  0  0  0
   14.6942  -11.4511    0.7389 H   0  0  0  0  0  0  0  0  0  0  0  0
  1  5  1  0
  1  2  1  6
  1  3  1  0
  1  4  1  0
  5  7  1  0
  5  6  2  0
  7  9  1  0
  7  8  1  0
  9 11  1  0
  9 13  1  0
  9 10  1  6
 11 16  1  0
 11 20  1  0
 11 12  1  1
 13 19  1  0
 13 14  1  1
 13 15  1  0
 16 22  1  0
 16 17  1  1
 16 18  1  0
 19 24  1  0
 19 47  2  0
 20 21  1  0
 22 27  1  0
 22 23  1  1
 22 26  1  0
 24 28  2  0
 24 25  1  0
 27 30  1  0
 27 54  1  0
 27 33  1  6
 28 34  1  0
 28 29  1  0
 30 36  1  0
 30 31  1  6
 30 32  1  0
 33 37  1  0
 33 59  2  0
 34 38  2  0
 34 35  1  0
 36 43  1  0
 36 40  1  6
 36 41  1  0
 37 46  2  0
 37 42  1  0
 38 47  1  0
 38 39  1  0
 43 49  1  0
 43 44  1  1
 43 45  1  0
 46 52  1  0
 46 61  1  0
 47 48  1  0
 49 54  1  0
 49 50  1  6
 49 51  1  0
 52 57  2  0
 52 53  1  0
 54 55  1  1
 54 56  1  0
 57 59  1  0
 57 58  1  0
 59 60  1  0
 61 62  1  0
 61 65  1  0
 62 63  1  0
 62 66  1  1
 62 67  1  0
 63 64  1  0
 63 68  1  6
 63 69  1  0
 64 65  1  0
 64 71  1  1
 64 72  1  0
 65 70  2  0
M  CHG  1  22   1
M  END
