42_0_ligand
     RDKit          3D

 76 79  0  0  1  0  0  0  0  0999 V2000
   11.4892    0.6176   -0.8877 C   0  0  1  0  0  0  0  0  0  0  0  0
   11.1285    0.8348   -1.8927 H   0  0  0  0  0  0  0  0  0  0  0  0
   10.6371    0.6150   -0.2083 H   0  0  0  0  0  0  0  0  0  0  0  0
   12.1667    1.4194   -0.5942 H   0  0  0  0  0  0  0  0  0  0  0  0
   12.1875   -0.7362   -0.8555 C   0  0  0  0  0  0  0  0  0  0  0  0
   11.8224   -1.6379   -1.6098 O   0  0  0  0  0  0  0  0  0  0  0  0
   13.1926   -0.8607    0.0231 N   0  0  0  0  0  0  0  0  0  0  0  0
   13.4824   -0.0233    0.5227 H   0  0  0  0  0  0  0  0  0  0  0  0
   14.0613   -2.0280    0.1837 C   0  0  2  0  0  0  0  0  0  0  0  0
   13.7787   -2.7992   -0.5390 H   0  0  0  0  0  0  0  0  0  0  0  0
   13.8545   -2.6665    1.5794 C   0  0  1  0  0  0  0  0  0  0  0  0
   14.1339   -1.9601    2.3666 H   0  0  0  0  0  0  0  0  0  0  0  0
   15.5208   -1.6510   -0.1688 C   0  0  1  0  0  0  0  0  0  0  0  0
   15.9566   -1.0425    0.6248 H   0  0  0  0  0  0  0  0  0  0  0  0
   16.1299   -2.5545   -0.2247 H   0  0  0  0  0  0  0  0  0  0  0  0
   12.3916   -3.1221    1.7761 C   0  0  2  0  0  0  0  0  0  0  0  0
   12.0895   -3.7969    0.9752 H   0  0  0  0  0  0  0  0  0  0  0  0
   11.7042   -2.2771    1.8074 H   0  0  0  0  0  0  0  0  0  0  0  0
   15.6210   -0.9232   -1.5045 C   0  0  0  0  0  0  0  0  0  0  0  0
   14.6897   -3.8583    1.6785 O   0  0  0  0  0  0  0  0  0  0  0  0
   15.6175   -3.5673    1.8180 H   0  0  0  0  0  0  0  0  0  0  0  0
   12.2076   -3.8172    3.0724 N   0  0  1  0  0  0  0  0  0  0  0  0
   13.0180   -4.4142    3.2011 H   0  0  0  0  0  0  0  0  0  0  0  0
   15.9610    0.4457   -1.5582 C   0  0  0  0  0  0  0  0  0  0  0  0
   16.2063    0.9868   -0.6564 H   0  0  0  0  0  0  0  0  0  0  0  0
   12.2310   -3.1155    3.8259 H   0  0  0  0  0  0  0  0  0  0  0  0
   10.9864   -4.6583    3.2198 C   0  0  2  0  0  0  0  0  0  0  0  0
   15.9372    1.1326   -2.7893 C   0  0  0  0  0  0  0  0  0  0  0  0
   16.2294    2.4541   -2.8314 F   0  0  0  0  0  0  0  0  0  0  0  0
   11.0067   -5.2328    4.6525 C   0  0  1  0  0  0  0  0  0  0  0  0
   11.9914   -5.5085    4.9448 H   0  0  0  0  0  0  0  0  0  0  0  0
   10.9838   -4.3455    5.2678 H   0  0  0  0  0  0  0  0  0  0  0  0
   11.0460   -5.7979    2.1760 C   0  0  0  0  0  0  0  0  0  0  0  0
   15.5828    0.4543   -3.9721 C   0  0  0  0  0  0  0  0  0  0  0  0
   15.5618    0.9799   -4.9140 H   0  0  0  0  0  0  0  0  0  0  0  0
    9.7406   -6.0430    4.9862 C   0  0  1  0  0  0  0  0  0  0  0  0
   12.0599   -6.7744    2.2823 C   0  0  0  0  0  0  0  0  0  0  0  0
   15.2479   -0.9116   -3.9228 C   0  0  0  0  0  0  0  0  0  0  0  0
   14.8574   -1.5568   -5.0469 F   0  0  0  0  0  0  0  0  0  0  0  0
    9.6401   -6.8714    4.2848 H   0  0  0  0  0  0  0  0  0  0  0  0
    9.8026   -6.5080    5.9652 H   0  0  0  0  0  0  0  0  0  0  0  0
   12.7491   -6.7443    3.1014 H   0  0  0  0  0  0  0  0  0  0  0  0
    8.4931   -5.1535    4.8971 C   0  0  1  0  0  0  0  0  0  0  0  0
    7.6004   -5.7566    5.0672 H   0  0  0  0  0  0  0  0  0  0  0  0
    8.4688   -4.3943    5.6709 H   0  0  0  0  0  0  0  0  0  0  0  0
   12.1815   -7.8466    1.3620 C   0  0  0  0  0  0  0  0  0  0  0  0
   15.2861   -1.5996   -2.6964 C   0  0  0  0  0  0  0  0  0  0  0  0
   15.0154   -2.6432   -2.6716 H   0  0  0  0  0  0  0  0  0  0  0  0
    8.4017   -4.4775    3.5234 C   0  0  1  0  0  0  0  0  0  0  0  0
    8.1440   -5.2309    2.7803 H   0  0  0  0  0  0  0  0  0  0  0  0
    7.5737   -3.7670    3.5144 H   0  0  0  0  0  0  0  0  0  0  0  0
   11.3308   -7.8738    0.2478 C   0  0  0  0  0  0  0  0  0  0  0  0
   11.3758   -8.7152   -0.4144 H   0  0  0  0  0  0  0  0  0  0  0  0
    9.7155   -3.7556    3.1463 C   0  0  1  0  0  0  0  0  0  0  0  0
    9.8398   -2.9054    3.8221 H   0  0  0  0  0  0  0  0  0  0  0  0
    9.6207   -3.3052    2.1630 H   0  0  0  0  0  0  0  0  0  0  0  0
   10.2905   -6.9323    0.1346 C   0  0  0  0  0  0  0  0  0  0  0  0
    9.5728   -7.0222   -0.6674 H   0  0  0  0  0  0  0  0  0  0  0  0
   10.1637   -5.8910    1.0743 C   0  0  0  0  0  0  0  0  0  0  0  0
    9.3447   -5.2103    0.9639 H   0  0  0  0  0  0  0  0  0  0  0  0
   13.0889   -8.8906    1.5648 N   0  0  0  0  0  0  0  0  0  0  0  0
   12.5850  -10.2044    1.9898 C   0  0  1  0  0  0  0  0  0  0  0  0
   12.4979  -11.2278    0.8432 C   0  0  1  0  0  0  0  0  0  0  0  0
   13.5608  -11.0691   -0.2629 C   0  0  1  0  0  0  0  0  0  0  0  0
   14.8867  -11.0295    0.2610 O   0  0  0  0  0  0  0  0  0  0  0  0
   15.2586   -9.9808    1.1862 C   0  0  1  0  0  0  0  0  0  0  0  0
   14.3730   -8.7049    1.1413 C   0  0  0  0  0  0  0  0  0  0  0  0
   13.2113  -10.5897    2.7966 H   0  0  0  0  0  0  0  0  0  0  0  0
   11.5918  -10.0970    2.4234 H   0  0  0  0  0  0  0  0  0  0  0  0
   12.5568  -12.2218    1.2827 H   0  0  0  0  0  0  0  0  0  0  0  0
   11.5138  -11.1491    0.3789 H   0  0  0  0  0  0  0  0  0  0  0  0
   13.5105  -11.8801   -0.9766 H   0  0  0  0  0  0  0  0  0  0  0  0
   13.3651  -10.1819   -0.8684 H   0  0  0  0  0  0  0  0  0  0  0  0
   15.3043  -10.3624    2.2052 H   0  0  0  0  0  0  0  0  0  0  0  0
   16.2826   -9.6957    0.9451 H   0  0  0  0  0  0  0  0  0  0  0  0
   14.8200   -7.6613    0.6825 O   0  0  0  0  0  0  0  0  0  0  0  0
  1  5  1  0
  1  2  1  6
  1  3  1  0
  1  4  1  0
  5  7  1  0
  5  6  2  0
  7  9  1  0
  7  8  1  0
  9 11  1  0
  9 13  1  0
  9 10  1  6
 11 16  1  0
 11 20  1  0
 11 12  1  1
 13 19  1  0
 13 14  1  1
 13 15  1  0
 16 22  1  0
 16 17  1  6
 16 18  1  0
 19 24  1  0
 19 47  2  0
 20 21  1  0
 22 27  1  0
 22 23  1  1
 22 26  1  0
 24 28  2  0
 24 25  1  0
 27 30  1  0
 27 54  1  0
 27 33  1  6
 28 34  1  0
 28 29  1  0
 30 36  1  0
 30 31  1  6
 30 32  1  0
 33 37  1  0
 33 59  2  0
 34 38  2  0
 34 35  1  0
 36 43  1  0
 36 40  1  6
 36 41  1  0
 37 46  2  0
 37 42  1  0
 38 47  1  0
 38 39  1  0
 43 49  1  0
 43 44  1  1
 43 45  1  0
 46 52  1  0
 46 61  1  0
 47 48  1  0
 49 54  1  0
 49 50  1  6
 49 51  1  0
 52 57  2  0
 52 53  1  0
 54 55  1  1
 54 56  1  0
 57 59  1  0
 57 58  1  0
 59 60  1  0
 61 62  1  0
 61 67  1  0
 62 63  1  0
 62 68  1  1
 62 69  1  0
 63 64  1  0
 63 70  1  1
 63 71  1  0
 64 65  1  0
 64 72  1  6
 64 73  1  0
 65 66  1  0
 66 67  1  0
 66 74  1  1
 66 75  1  0
 67 76  2  0
M  CHG  1  22   1
M  END
