44_0_ligand
     RDKit          3D

 77 80  0  0  1  0  0  0  0  0999 V2000
   11.4892    0.6176   -0.8877 C   0  0  1  0  0  0  0  0  0  0  0  0
   11.1221    0.8317   -1.8910 H   0  0  0  0  0  0  0  0  0  0  0  0
   10.6413    0.6175   -0.2030 H   0  0  0  0  0  0  0  0  0  0  0  0
   12.1685    1.4204   -0.6013 H   0  0  0  0  0  0  0  0  0  0  0  0
   12.1875   -0.7362   -0.8555 C   0  0  0  0  0  0  0  0  0  0  0  0
   11.8224   -1.6379   -1.6098 O   0  0  0  0  0  0  0  0  0  0  0  0
   13.1926   -0.8607    0.0231 N   0  0  0  0  0  0  0  0  0  0  0  0
   13.4835   -0.0220    0.5210 H   0  0  0  0  0  0  0  0  0  0  0  0
   14.0613   -2.0280    0.1837 C   0  0  2  0  0  0  0  0  0  0  0  0
   13.7789   -2.7988   -0.5394 H   0  0  0  0  0  0  0  0  0  0  0  0
   13.8545   -2.6665    1.5794 C   0  0  1  0  0  0  0  0  0  0  0  0
   14.1335   -1.9610    2.3668 H   0  0  0  0  0  0  0  0  0  0  0  0
   15.5208   -1.6510   -0.1688 C   0  0  1  0  0  0  0  0  0  0  0  0
   15.9560   -1.0430    0.6253 H   0  0  0  0  0  0  0  0  0  0  0  0
   16.1304   -2.5543   -0.2233 H   0  0  0  0  0  0  0  0  0  0  0  0
   12.3913   -3.1218    1.7758 C   0  0  2  0  0  0  0  0  0  0  0  0
   12.0873   -3.7942    0.9739 H   0  0  0  0  0  0  0  0  0  0  0  0
   11.7058   -2.2751    1.8075 H   0  0  0  0  0  0  0  0  0  0  0  0
   15.6210   -0.9232   -1.5045 C   0  0  0  0  0  0  0  0  0  0  0  0
   14.6942   -3.8624    1.6784 O   0  0  0  0  0  0  0  0  0  0  0  0
   15.6183   -3.5678    1.8352 H   0  0  0  0  0  0  0  0  0  0  0  0
   12.2077   -3.8171    3.0726 N   0  0  1  0  0  0  0  0  0  0  0  0
   13.0172   -4.4146    3.2041 H   0  0  0  0  0  0  0  0  0  0  0  0
   15.9610    0.4457   -1.5582 C   0  0  0  0  0  0  0  0  0  0  0  0
   16.2059    0.9873   -0.6566 H   0  0  0  0  0  0  0  0  0  0  0  0
   12.2305   -3.1155    3.8260 H   0  0  0  0  0  0  0  0  0  0  0  0
   10.9862   -4.6586    3.2197 C   0  0  2  0  0  0  0  0  0  0  0  0
   15.9372    1.1326   -2.7893 C   0  0  0  0  0  0  0  0  0  0  0  0
   16.2294    2.4541   -2.8314 F   0  0  0  0  0  0  0  0  0  0  0  0
   11.0066   -5.2327    4.6524 C   0  0  1  0  0  0  0  0  0  0  0  0
   11.9916   -5.5096    4.9424 H   0  0  0  0  0  0  0  0  0  0  0  0
   10.9848   -4.3458    5.2683 H   0  0  0  0  0  0  0  0  0  0  0  0
   11.0460   -5.7979    2.1759 C   0  0  0  0  0  0  0  0  0  0  0  0
   15.5828    0.4543   -3.9721 C   0  0  0  0  0  0  0  0  0  0  0  0
   15.5617    0.9800   -4.9140 H   0  0  0  0  0  0  0  0  0  0  0  0
    9.7406   -6.0429    4.9862 C   0  0  1  0  0  0  0  0  0  0  0  0
   12.0599   -6.7745    2.2822 C   0  0  0  0  0  0  0  0  0  0  0  0
   15.2479   -0.9116   -3.9228 C   0  0  0  0  0  0  0  0  0  0  0  0
   14.8574   -1.5568   -5.0469 F   0  0  0  0  0  0  0  0  0  0  0  0
    9.6406   -6.8717    4.2852 H   0  0  0  0  0  0  0  0  0  0  0  0
    9.8028   -6.5077    5.9653 H   0  0  0  0  0  0  0  0  0  0  0  0
   12.7724   -6.7098    3.0767 H   0  0  0  0  0  0  0  0  0  0  0  0
    8.4931   -5.1535    4.8971 C   0  0  1  0  0  0  0  0  0  0  0  0
    7.6006   -5.7568    5.0671 H   0  0  0  0  0  0  0  0  0  0  0  0
    8.4688   -4.3944    5.6709 H   0  0  0  0  0  0  0  0  0  0  0  0
   12.1904   -7.8423    1.3605 C   0  0  0  0  0  0  0  0  0  0  0  0
   15.2861   -1.5996   -2.6964 C   0  0  0  0  0  0  0  0  0  0  0  0
   15.0147   -2.6430   -2.6722 H   0  0  0  0  0  0  0  0  0  0  0  0
    8.4017   -4.4775    3.5234 C   0  0  1  0  0  0  0  0  0  0  0  0
    8.1442   -5.2309    2.7802 H   0  0  0  0  0  0  0  0  0  0  0  0
    7.5737   -3.7671    3.5145 H   0  0  0  0  0  0  0  0  0  0  0  0
   11.3308   -7.8738    0.2479 C   0  0  0  0  0  0  0  0  0  0  0  0
   11.3806   -8.7087   -0.4195 H   0  0  0  0  0  0  0  0  0  0  0  0
    9.7155   -3.7556    3.1463 C   0  0  1  0  0  0  0  0  0  0  0  0
    9.8397   -2.9056    3.8222 H   0  0  0  0  0  0  0  0  0  0  0  0
    9.6201   -3.3058    2.1629 H   0  0  0  0  0  0  0  0  0  0  0  0
   10.2906   -6.9322    0.1346 C   0  0  0  0  0  0  0  0  0  0  0  0
    9.5733   -7.0226   -0.6676 H   0  0  0  0  0  0  0  0  0  0  0  0
   10.1638   -5.8910    1.0744 C   0  0  0  0  0  0  0  0  0  0  0  0
    9.3441   -5.2107    0.9645 H   0  0  0  0  0  0  0  0  0  0  0  0
   13.2987   -8.7134    1.4680 N   0  0  0  0  0  0  0  0  0  0  0  0
   13.4641   -9.4869    2.6992 C   0  0  1  0  0  0  0  0  0  0  0  0
   12.5224  -10.7024    2.8148 C   0  0  1  0  0  0  0  0  0  0  0  0
   12.9158  -11.9320    2.0099 C   0  0  1  0  0  0  0  0  0  0  0  0
   12.9677  -11.6688    0.6177 O   0  0  0  0  0  0  0  0  0  0  0  0
   14.0829  -10.8839    0.2086 C   0  0  1  0  0  0  0  0  0  0  0  0
   13.8592   -9.3530    0.2667 C   0  0  2  0  0  0  0  0  0  0  0  0
   14.5160   -9.7293    2.8646 H   0  0  0  0  0  0  0  0  0  0  0  0
   13.2567   -8.8250    3.5389 H   0  0  0  0  0  0  0  0  0  0  0  0
   12.4571  -11.0065    3.8586 H   0  0  0  0  0  0  0  0  0  0  0  0
   11.5140  -10.4262    2.5069 H   0  0  0  0  0  0  0  0  0  0  0  0
   13.8522  -12.3543    2.3679 H   0  0  0  0  0  0  0  0  0  0  0  0
   12.1679  -12.7089    2.1745 H   0  0  0  0  0  0  0  0  0  0  0  0
   14.9852  -11.1580    0.7615 H   0  0  0  0  0  0  0  0  0  0  0  0
   14.2999  -11.1673   -0.8205 H   0  0  0  0  0  0  0  0  0  0  0  0
   14.8886   -8.9936    0.2967 H   0  0  0  0  0  0  0  0  0  0  0  0
   13.5052   -8.9280   -0.6725 H   0  0  0  0  0  0  0  0  0  0  0  0
  1  5  1  0
  1  2  1  6
  1  3  1  0
  1  4  1  0
  5  7  1  0
  5  6  2  0
  7  9  1  0
  7  8  1  0
  9 11  1  0
  9 13  1  0
  9 10  1  6
 11 16  1  0
 11 20  1  0
 11 12  1  1
 13 19  1  0
 13 14  1  1
 13 15  1  0
 16 22  1  0
 16 17  1  6
 16 18  1  0
 19 24  1  0
 19 47  2  0
 20 21  1  0
 22 27  1  0
 22 23  1  1
 22 26  1  0
 24 28  2  0
 24 25  1  0
 27 30  1  0
 27 54  1  0
 27 33  1  6
 28 34  1  0
 28 29  1  0
 30 36  1  0
 30 31  1  6
 30 32  1  0
 33 37  1  0
 33 59  2  0
 34 38  2  0
 34 35  1  0
 36 43  1  0
 36 40  1  6
 36 41  1  0
 37 46  2  0
 37 42  1  0
 38 47  1  0
 38 39  1  0
 43 49  1  0
 43 44  1  1
 43 45  1  0
 46 52  1  0
 46 61  1  0
 47 48  1  0
 49 54  1  0
 49 50  1  6
 49 51  1  0
 52 57  2  0
 52 53  1  0
 54 55  1  1
 54 56  1  0
 57 59  1  0
 57 58  1  0
 59 60  1  0
 61 62  1  0
 61 67  1  0
 62 63  1  0
 62 68  1  1
 62 69  1  0
 63 64  1  0
 63 70  1  1
 63 71  1  0
 64 65  1  0
 64 72  1  1
 64 73  1  0
 65 66  1  0
 66 67  1  0
 66 74  1  1
 66 75  1  0
 67 76  1  1
 67 77  1  0
M  CHG  1  22   1
M  END
