30_0_ligand
     RDKit          3D

 74 77  0  0  1  0  0  0  0  0999 V2000
   11.4892    0.6176   -0.8877 C   0  0  1  0  0  0  0  0  0  0  0  0
   12.1665    1.4198   -0.5948 H   0  0  0  0  0  0  0  0  0  0  0  0
   11.1283    0.8346   -1.8926 H   0  0  0  0  0  0  0  0  0  0  0  0
   10.6370    0.6152   -0.2083 H   0  0  0  0  0  0  0  0  0  0  0  0
   12.1875   -0.7362   -0.8555 C   0  0  0  0  0  0  0  0  0  0  0  0
   11.8224   -1.6379   -1.6098 O   0  0  0  0  0  0  0  0  0  0  0  0
   13.1926   -0.8607    0.0231 N   0  0  0  0  0  0  0  0  0  0  0  0
   13.4831   -0.0224    0.5217 H   0  0  0  0  0  0  0  0  0  0  0  0
   14.0613   -2.0280    0.1837 C   0  0  2  0  0  0  0  0  0  0  0  0
   13.7784   -2.7981   -0.5401 H   0  0  0  0  0  0  0  0  0  0  0  0
   13.8545   -2.6665    1.5794 C   0  0  1  0  0  0  0  0  0  0  0  0
   14.1348   -1.9622    2.3673 H   0  0  0  0  0  0  0  0  0  0  0  0
   15.5208   -1.6510   -0.1688 C   0  0  1  0  0  0  0  0  0  0  0  0
   15.9561   -1.0431    0.6253 H   0  0  0  0  0  0  0  0  0  0  0  0
   16.1302   -2.5544   -0.2233 H   0  0  0  0  0  0  0  0  0  0  0  0
   12.3940   -3.1236    1.7772 C   0  0  1  0  0  0  0  0  0  0  0  0
   11.7078   -2.2776    1.8080 H   0  0  0  0  0  0  0  0  0  0  0  0
   12.0896   -3.7967    0.9757 H   0  0  0  0  0  0  0  0  0  0  0  0
   15.6210   -0.9232   -1.5045 C   0  0  0  0  0  0  0  0  0  0  0  0
   14.6613   -3.8340    1.6787 O   0  0  0  0  0  0  0  0  0  0  0  0
   15.5866   -3.5459    1.8369 H   0  0  0  0  0  0  0  0  0  0  0  0
   12.2073   -3.8174    3.0713 N   0  0  1  0  0  0  0  0  0  0  0  0
   13.0158   -4.4162    3.2014 H   0  0  0  0  0  0  0  0  0  0  0  0
   15.9610    0.4457   -1.5582 C   0  0  0  0  0  0  0  0  0  0  0  0
   16.2059    0.9873   -0.6566 H   0  0  0  0  0  0  0  0  0  0  0  0
   12.2314   -3.1162    3.8248 H   0  0  0  0  0  0  0  0  0  0  0  0
   10.9870   -4.6569    3.2201 C   0  0  2  0  0  0  0  0  0  0  0  0
   15.9372    1.1326   -2.7893 C   0  0  0  0  0  0  0  0  0  0  0  0
   16.2294    2.4541   -2.8314 F   0  0  0  0  0  0  0  0  0  0  0  0
   11.0070   -5.2332    4.6525 C   0  0  1  0  0  0  0  0  0  0  0  0
   11.9919   -5.5092    4.9434 H   0  0  0  0  0  0  0  0  0  0  0  0
   10.9847   -4.3464    5.2684 H   0  0  0  0  0  0  0  0  0  0  0  0
   11.0458   -5.7976    2.1763 C   0  0  0  0  0  0  0  0  0  0  0  0
   15.5828    0.4543   -3.9721 C   0  0  0  0  0  0  0  0  0  0  0  0
   15.5617    0.9800   -4.9140 H   0  0  0  0  0  0  0  0  0  0  0  0
    9.7403   -6.0431    4.9863 C   0  0  1  0  0  0  0  0  0  0  0  0
   12.0602   -6.7741    2.2827 C   0  0  0  0  0  0  0  0  0  0  0  0
   15.2479   -0.9116   -3.9228 C   0  0  0  0  0  0  0  0  0  0  0  0
   14.8574   -1.5568   -5.0469 F   0  0  0  0  0  0  0  0  0  0  0  0
    9.6406   -6.8713    4.2844 H   0  0  0  0  0  0  0  0  0  0  0  0
    9.8025   -6.5083    5.9651 H   0  0  0  0  0  0  0  0  0  0  0  0
   12.7451   -6.7362    3.1046 H   0  0  0  0  0  0  0  0  0  0  0  0
    8.4931   -5.1535    4.8971 C   0  0  1  0  0  0  0  0  0  0  0  0
    7.6005   -5.7567    5.0670 H   0  0  0  0  0  0  0  0  0  0  0  0
    8.4691   -4.3944    5.6709 H   0  0  0  0  0  0  0  0  0  0  0  0
   12.2210   -7.7971    1.3272 C   0  0  0  0  0  0  0  0  0  0  0  0
   15.2861   -1.5996   -2.6964 C   0  0  0  0  0  0  0  0  0  0  0  0
   15.0146   -2.6430   -2.6721 H   0  0  0  0  0  0  0  0  0  0  0  0
    8.4017   -4.4775    3.5234 C   0  0  1  0  0  0  0  0  0  0  0  0
    8.1445   -5.2312    2.7804 H   0  0  0  0  0  0  0  0  0  0  0  0
    7.5736   -3.7671    3.5143 H   0  0  0  0  0  0  0  0  0  0  0  0
   11.3310   -7.8742    0.2476 C   0  0  0  0  0  0  0  0  0  0  0  0
   11.3812   -8.7224   -0.4065 H   0  0  0  0  0  0  0  0  0  0  0  0
    9.7155   -3.7556    3.1463 C   0  0  1  0  0  0  0  0  0  0  0  0
    9.8394   -2.9055    3.8221 H   0  0  0  0  0  0  0  0  0  0  0  0
    9.6206   -3.3059    2.1628 H   0  0  0  0  0  0  0  0  0  0  0  0
   10.2902   -6.9324    0.1344 C   0  0  0  0  0  0  0  0  0  0  0  0
    9.5653   -7.0296   -0.6604 H   0  0  0  0  0  0  0  0  0  0  0  0
   10.1635   -5.8908    1.0741 C   0  0  0  0  0  0  0  0  0  0  0  0
    9.3430   -5.2117    0.9652 H   0  0  0  0  0  0  0  0  0  0  0  0
   13.2940   -8.8536    1.5692 C   0  0  2  0  0  0  0  0  0  0  0  0
   14.1796   -9.2098    0.3741 C   0  0  2  0  0  0  0  0  0  0  0  0
   14.7125  -10.6016    0.7128 C   0  0  1  0  0  0  0  0  0  0  0  0
   13.5070  -11.2938    1.3413 C   0  0  1  0  0  0  0  0  0  0  0  0
   12.7773  -10.1969    2.1226 C   0  0  1  0  0  0  0  0  0  0  0  0
   13.9796   -8.4458    2.3171 H   0  0  0  0  0  0  0  0  0  0  0  0
   14.9748   -8.4782    0.2226 H   0  0  0  0  0  0  0  0  0  0  0  0
   13.5979   -9.2566   -0.5479 H   0  0  0  0  0  0  0  0  0  0  0  0
   15.0898  -11.1359   -0.1581 H   0  0  0  0  0  0  0  0  0  0  0  0
   15.5277  -10.5298    1.4356 H   0  0  0  0  0  0  0  0  0  0  0  0
   12.8561  -11.6589    0.5473 H   0  0  0  0  0  0  0  0  0  0  0  0
   13.7843  -12.1419    1.9684 H   0  0  0  0  0  0  0  0  0  0  0  0
   13.0023  -10.2743    3.1881 H   0  0  0  0  0  0  0  0  0  0  0  0
   11.6968  -10.3065    2.0140 H   0  0  0  0  0  0  0  0  0  0  0  0
  1  5  1  0
  1  2  1  1
  1  3  1  0
  1  4  1  0
  5  7  1  0
  5  6  2  0
  7  9  1  0
  7  8  1  0
  9 11  1  0
  9 13  1  0
  9 10  1  6
 11 16  1  0
 11 20  1  0
 11 12  1  1
 13 19  1  0
 13 14  1  1
 13 15  1  0
 16 22  1  0
 16 17  1  1
 16 18  1  0
 19 24  1  0
 19 47  2  0
 20 21  1  0
 22 27  1  0
 22 23  1  1
 22 26  1  0
 24 28  2  0
 24 25  1  0
 27 30  1  0
 27 54  1  0
 27 33  1  6
 28 34  1  0
 28 29  1  0
 30 36  1  0
 30 31  1  6
 30 32  1  0
 33 37  1  0
 33 59  2  0
 34 38  2  0
 34 35  1  0
 36 43  1  0
 36 40  1  6
 36 41  1  0
 37 46  2  0
 37 42  1  0
 38 47  1  0
 38 39  1  0
 43 49  1  0
 43 44  1  1
 43 45  1  0
 46 52  1  0
 46 61  1  0
 47 48  1  0
 49 54  1  0
 49 50  1  6
 49 51  1  0
 52 57  2  0
 52 53  1  0
 54 55  1  1
 54 56  1  0
 57 59  1  0
 57 58  1  0
 59 60  1  0
 61 62  1  0
 61 65  1  0
 61 66  1  1
 62 63  1  0
 62 67  1  6
 62 68  1  0
 63 64  1  0
 63 69  1  6
 63 70  1  0
 64 65  1  0
 64 71  1  6
 64 72  1  0
 65 73  1  1
 65 74  1  0
M  CHG  1  22   1
M  END
