40_0_ligand
     RDKit          3D

 73 76  0  0  1  0  0  0  0  0999 V2000
   11.4892    0.6176   -0.8877 C   0  0  1  0  0  0  0  0  0  0  0  0
   12.1669    1.4199   -0.5959 H   0  0  0  0  0  0  0  0  0  0  0  0
   11.1273    0.8340   -1.8924 H   0  0  0  0  0  0  0  0  0  0  0  0
   10.6378    0.6156   -0.2074 H   0  0  0  0  0  0  0  0  0  0  0  0
   12.1875   -0.7362   -0.8555 C   0  0  0  0  0  0  0  0  0  0  0  0
   11.8224   -1.6379   -1.6098 O   0  0  0  0  0  0  0  0  0  0  0  0
   13.1926   -0.8607    0.0231 N   0  0  0  0  0  0  0  0  0  0  0  0
   13.4837   -0.0218    0.5206 H   0  0  0  0  0  0  0  0  0  0  0  0
   14.0613   -2.0280    0.1837 C   0  0  2  0  0  0  0  0  0  0  0  0
   13.7787   -2.7985   -0.5395 H   0  0  0  0  0  0  0  0  0  0  0  0
   13.8545   -2.6665    1.5794 C   0  0  1  0  0  0  0  0  0  0  0  0
   14.1331   -1.9604    2.3666 H   0  0  0  0  0  0  0  0  0  0  0  0
   15.5208   -1.6510   -0.1688 C   0  0  1  0  0  0  0  0  0  0  0  0
   15.9562   -1.0431    0.6253 H   0  0  0  0  0  0  0  0  0  0  0  0
   16.1303   -2.5543   -0.2236 H   0  0  0  0  0  0  0  0  0  0  0  0
   12.3914   -3.1219    1.7759 C   0  0  1  0  0  0  0  0  0  0  0  0
   11.7058   -2.2752    1.8070 H   0  0  0  0  0  0  0  0  0  0  0  0
   12.0878   -3.7942    0.9738 H   0  0  0  0  0  0  0  0  0  0  0  0
   15.6210   -0.9232   -1.5045 C   0  0  0  0  0  0  0  0  0  0  0  0
   14.6945   -3.8624    1.6782 O   0  0  0  0  0  0  0  0  0  0  0  0
   15.6184   -3.5660    1.8344 H   0  0  0  0  0  0  0  0  0  0  0  0
   12.2077   -3.8171    3.0726 N   0  0  1  0  0  0  0  0  0  0  0  0
   13.0198   -4.4098    3.2066 H   0  0  0  0  0  0  0  0  0  0  0  0
   15.9610    0.4457   -1.5582 C   0  0  0  0  0  0  0  0  0  0  0  0
   16.2059    0.9873   -0.6566 H   0  0  0  0  0  0  0  0  0  0  0  0
   12.2281   -3.1137    3.8248 H   0  0  0  0  0  0  0  0  0  0  0  0
   10.9863   -4.6584    3.2197 C   0  0  2  0  0  0  0  0  0  0  0  0
   15.9372    1.1326   -2.7893 C   0  0  0  0  0  0  0  0  0  0  0  0
   16.2294    2.4541   -2.8314 F   0  0  0  0  0  0  0  0  0  0  0  0
   11.0066   -5.2327    4.6524 C   0  0  1  0  0  0  0  0  0  0  0  0
   11.9910   -5.5081    4.9467 H   0  0  0  0  0  0  0  0  0  0  0  0
   10.9831   -4.3453    5.2676 H   0  0  0  0  0  0  0  0  0  0  0  0
   11.0460   -5.7979    2.1759 C   0  0  0  0  0  0  0  0  0  0  0  0
   15.5828    0.4543   -3.9721 C   0  0  0  0  0  0  0  0  0  0  0  0
   15.5617    0.9800   -4.9140 H   0  0  0  0  0  0  0  0  0  0  0  0
    9.7406   -6.0429    4.9862 C   0  0  1  0  0  0  0  0  0  0  0  0
   12.0599   -6.7742    2.2822 C   0  0  0  0  0  0  0  0  0  0  0  0
   15.2479   -0.9116   -3.9228 C   0  0  0  0  0  0  0  0  0  0  0  0
   14.8574   -1.5568   -5.0469 F   0  0  0  0  0  0  0  0  0  0  0  0
    9.6405   -6.8714    4.2847 H   0  0  0  0  0  0  0  0  0  0  0  0
    9.8025   -6.5080    5.9652 H   0  0  0  0  0  0  0  0  0  0  0  0
   12.7521   -6.7402    3.0985 H   0  0  0  0  0  0  0  0  0  0  0  0
    8.4931   -5.1535    4.8971 C   0  0  1  0  0  0  0  0  0  0  0  0
    7.6005   -5.7568    5.0670 H   0  0  0  0  0  0  0  0  0  0  0  0
    8.4686   -4.3945    5.6710 H   0  0  0  0  0  0  0  0  0  0  0  0
   12.1753   -7.8539    1.3764 C   0  0  0  0  0  0  0  0  0  0  0  0
   15.2861   -1.5996   -2.6964 C   0  0  0  0  0  0  0  0  0  0  0  0
   15.0146   -2.6429   -2.6723 H   0  0  0  0  0  0  0  0  0  0  0  0
    8.4017   -4.4775    3.5234 C   0  0  1  0  0  0  0  0  0  0  0  0
    8.1438   -5.2310    2.7804 H   0  0  0  0  0  0  0  0  0  0  0  0
    7.5736   -3.7670    3.5146 H   0  0  0  0  0  0  0  0  0  0  0  0
   11.3307   -7.8738    0.2479 C   0  0  0  0  0  0  0  0  0  0  0  0
   11.3768   -8.7124   -0.4186 H   0  0  0  0  0  0  0  0  0  0  0  0
    9.7155   -3.7556    3.1463 C   0  0  1  0  0  0  0  0  0  0  0  0
    9.8395   -2.9056    3.8224 H   0  0  0  0  0  0  0  0  0  0  0  0
    9.6202   -3.3049    2.1633 H   0  0  0  0  0  0  0  0  0  0  0  0
   10.2906   -6.9323    0.1346 C   0  0  0  0  0  0  0  0  0  0  0  0
    9.5742   -7.0211   -0.6687 H   0  0  0  0  0  0  0  0  0  0  0  0
   10.1637   -5.8911    1.0743 C   0  0  0  0  0  0  0  0  0  0  0  0
    9.3443   -5.2107    0.9639 H   0  0  0  0  0  0  0  0  0  0  0  0
   15.4794   -9.6631    1.1849 C   0  0  2  0  0  0  0  0  0  0  0  0
   14.4237   -8.5812    0.8885 C   0  0  2  0  0  0  0  0  0  0  0  0
   13.1175   -8.8787    1.5206 N   0  0  0  0  0  0  0  0  0  0  0  0
   12.6863  -10.1633    1.7348 C   0  0  0  0  0  0  0  0  0  0  0  0
   13.8130  -11.2121    1.7785 C   0  0  1  0  0  0  0  0  0  0  0  0
   14.8940  -10.9171    0.8899 O   0  0  0  0  0  0  0  0  0  0  0  0
   15.8054   -9.6306    2.2275 H   0  0  0  0  0  0  0  0  0  0  0  0
   16.3670   -9.5215    0.5677 H   0  0  0  0  0  0  0  0  0  0  0  0
   14.2678   -8.5162   -0.1895 H   0  0  0  0  0  0  0  0  0  0  0  0
   14.7706   -7.6025    1.2108 H   0  0  0  0  0  0  0  0  0  0  0  0
   14.1386  -11.2587    2.8132 H   0  0  0  0  0  0  0  0  0  0  0  0
   13.3875  -12.1828    1.5342 H   0  0  0  0  0  0  0  0  0  0  0  0
   11.5102  -10.4930    1.9170 O   0  0  0  0  0  0  0  0  0  0  0  0
  1  5  1  0
  1  2  1  1
  1  3  1  0
  1  4  1  0
  5  7  1  0
  5  6  2  0
  7  9  1  0
  7  8  1  0
  9 11  1  0
  9 13  1  0
  9 10  1  6
 11 16  1  0
 11 20  1  0
 11 12  1  1
 13 19  1  0
 13 14  1  1
 13 15  1  0
 16 22  1  0
 16 17  1  1
 16 18  1  0
 19 24  1  0
 19 47  2  0
 20 21  1  0
 22 27  1  0
 22 23  1  1
 22 26  1  0
 24 28  2  0
 24 25  1  0
 27 30  1  0
 27 54  1  0
 27 33  1  6
 28 34  1  0
 28 29  1  0
 30 36  1  0
 30 31  1  6
 30 32  1  0
 33 37  1  0
 33 59  2  0
 34 38  2  0
 34 35  1  0
 36 43  1  0
 36 40  1  6
 36 41  1  0
 37 46  2  0
 37 42  1  0
 38 47  1  0
 38 39  1  0
 43 49  1  0
 43 44  1  1
 43 45  1  0
 46 52  1  0
 46 63  1  0
 47 48  1  0
 49 54  1  0
 49 50  1  6
 49 51  1  0
 52 57  2  0
 52 53  1  0
 54 55  1  1
 54 56  1  0
 57 59  1  0
 57 58  1  0
 59 60  1  0
 61 62  1  0
 61 66  1  0
 61 67  1  1
 61 68  1  0
 62 63  1  0
 62 69  1  6
 62 70  1  0
 63 64  1  0
 64 65  1  0
 64 73  2  0
 65 66  1  0
 65 71  1  1
 65 72  1  0
M  CHG  1  22   1
M  END
