34_0_ligand
     RDKit          3D

 70 73  0  0  1  0  0  0  0  0999 V2000
   11.4892    0.6176   -0.8877 C   0  0  1  0  0  0  0  0  0  0  0  0
   11.1252    0.8330   -1.8918 H   0  0  0  0  0  0  0  0  0  0  0  0
   10.6392    0.6163   -0.2056 H   0  0  0  0  0  0  0  0  0  0  0  0
   12.1676    1.4201   -0.5981 H   0  0  0  0  0  0  0  0  0  0  0  0
   12.1875   -0.7362   -0.8555 C   0  0  0  0  0  0  0  0  0  0  0  0
   11.8224   -1.6379   -1.6098 O   0  0  0  0  0  0  0  0  0  0  0  0
   13.1926   -0.8607    0.0231 N   0  0  0  0  0  0  0  0  0  0  0  0
   13.4836   -0.0219    0.5207 H   0  0  0  0  0  0  0  0  0  0  0  0
   14.0613   -2.0280    0.1837 C   0  0  2  0  0  0  0  0  0  0  0  0
   13.7785   -2.7977   -0.5404 H   0  0  0  0  0  0  0  0  0  0  0  0
   13.8545   -2.6665    1.5794 C   0  0  1  0  0  0  0  0  0  0  0  0
   14.1345   -1.9615    2.3671 H   0  0  0  0  0  0  0  0  0  0  0  0
   15.5208   -1.6510   -0.1688 C   0  0  1  0  0  0  0  0  0  0  0  0
   15.9561   -1.0430    0.6252 H   0  0  0  0  0  0  0  0  0  0  0  0
   16.1304   -2.5543   -0.2233 H   0  0  0  0  0  0  0  0  0  0  0  0
   12.3940   -3.1236    1.7772 C   0  0  1  0  0  0  0  0  0  0  0  0
   11.7089   -2.2765    1.8083 H   0  0  0  0  0  0  0  0  0  0  0  0
   12.0886   -3.7940    0.9740 H   0  0  0  0  0  0  0  0  0  0  0  0
   15.6210   -0.9232   -1.5045 C   0  0  0  0  0  0  0  0  0  0  0  0
   14.6613   -3.8340    1.6787 O   0  0  0  0  0  0  0  0  0  0  0  0
   15.5867   -3.5448    1.8366 H   0  0  0  0  0  0  0  0  0  0  0  0
   12.2073   -3.8174    3.0713 N   0  0  1  0  0  0  0  0  0  0  0  0
   13.0213   -4.4069    3.2065 H   0  0  0  0  0  0  0  0  0  0  0  0
   15.9610    0.4457   -1.5582 C   0  0  0  0  0  0  0  0  0  0  0  0
   16.2059    0.9874   -0.6566 H   0  0  0  0  0  0  0  0  0  0  0  0
   12.2274   -3.1128    3.8226 H   0  0  0  0  0  0  0  0  0  0  0  0
   10.9870   -4.6569    3.2201 C   0  0  2  0  0  0  0  0  0  0  0  0
   15.9372    1.1326   -2.7893 C   0  0  0  0  0  0  0  0  0  0  0  0
   16.2294    2.4541   -2.8314 F   0  0  0  0  0  0  0  0  0  0  0  0
   11.0070   -5.2332    4.6525 C   0  0  1  0  0  0  0  0  0  0  0  0
   11.9910   -5.5065    4.9509 H   0  0  0  0  0  0  0  0  0  0  0  0
   10.9819   -4.3455    5.2672 H   0  0  0  0  0  0  0  0  0  0  0  0
   11.0458   -5.7976    2.1763 C   0  0  0  0  0  0  0  0  0  0  0  0
   15.5828    0.4543   -3.9721 C   0  0  0  0  0  0  0  0  0  0  0  0
   15.5617    0.9800   -4.9140 H   0  0  0  0  0  0  0  0  0  0  0  0
    9.7403   -6.0431    4.9863 C   0  0  1  0  0  0  0  0  0  0  0  0
   12.0602   -6.7741    2.2827 C   0  0  0  0  0  0  0  0  0  0  0  0
   15.2479   -0.9116   -3.9228 C   0  0  0  0  0  0  0  0  0  0  0  0
   14.8574   -1.5568   -5.0469 F   0  0  0  0  0  0  0  0  0  0  0  0
    9.6389   -6.8716    4.2851 H   0  0  0  0  0  0  0  0  0  0  0  0
    9.8018   -6.5081    5.9654 H   0  0  0  0  0  0  0  0  0  0  0  0
   12.7387   -6.7279    3.1084 H   0  0  0  0  0  0  0  0  0  0  0  0
    8.4931   -5.1535    4.8971 C   0  0  1  0  0  0  0  0  0  0  0  0
    7.6003   -5.7563    5.0673 H   0  0  0  0  0  0  0  0  0  0  0  0
    8.4688   -4.3944    5.6709 H   0  0  0  0  0  0  0  0  0  0  0  0
   12.2069   -7.8138    1.3419 C   0  0  0  0  0  0  0  0  0  0  0  0
   15.2861   -1.5996   -2.6964 C   0  0  0  0  0  0  0  0  0  0  0  0
   15.0146   -2.6429   -2.6723 H   0  0  0  0  0  0  0  0  0  0  0  0
    8.4017   -4.4775    3.5234 C   0  0  1  0  0  0  0  0  0  0  0  0
    8.1433   -5.2309    2.7804 H   0  0  0  0  0  0  0  0  0  0  0  0
    7.5737   -3.7669    3.5147 H   0  0  0  0  0  0  0  0  0  0  0  0
   11.3311   -7.8742    0.2476 C   0  0  0  0  0  0  0  0  0  0  0  0
   11.3655   -8.6995   -0.4319 H   0  0  0  0  0  0  0  0  0  0  0  0
    9.7155   -3.7556    3.1463 C   0  0  1  0  0  0  0  0  0  0  0  0
    9.8389   -2.9053    3.8222 H   0  0  0  0  0  0  0  0  0  0  0  0
    9.6203   -3.3046    2.1634 H   0  0  0  0  0  0  0  0  0  0  0  0
   10.2902   -6.9324    0.1344 C   0  0  0  0  0  0  0  0  0  0  0  0
    9.5690   -7.0254   -0.6644 H   0  0  0  0  0  0  0  0  0  0  0  0
   10.1635   -5.8908    1.0741 C   0  0  0  0  0  0  0  0  0  0  0  0
    9.3432   -5.2112    0.9641 H   0  0  0  0  0  0  0  0  0  0  0  0
   13.1796   -8.8209    1.5434 N   0  0  0  0  0  0  0  0  0  0  0  0
   14.2736   -8.7537    2.4892 C   0  0  2  0  0  0  0  0  0  0  0  0
   15.2336   -9.7572    1.9085 C   0  0  1  0  0  0  0  0  0  0  0  0
   14.3102  -10.7144    1.4532 O   0  0  0  0  0  0  0  0  0  0  0  0
   13.1615  -10.1391    1.0520 C   0  0  0  0  0  0  0  0  0  0  0  0
   13.9211   -9.0567    3.4749 H   0  0  0  0  0  0  0  0  0  0  0  0
   14.6845   -7.7515    2.5677 H   0  0  0  0  0  0  0  0  0  0  0  0
   15.7948   -9.3554    1.0621 H   0  0  0  0  0  0  0  0  0  0  0  0
   15.9281  -10.1591    2.6465 H   0  0  0  0  0  0  0  0  0  0  0  0
   12.3168  -10.7673    0.4154 O   0  0  0  0  0  0  0  0  0  0  0  0
  1  5  1  0
  1  2  1  6
  1  3  1  0
  1  4  1  0
  5  7  1  0
  5  6  2  0
  7  9  1  0
  7  8  1  0
  9 11  1  0
  9 13  1  0
  9 10  1  6
 11 16  1  0
 11 20  1  0
 11 12  1  1
 13 19  1  0
 13 14  1  1
 13 15  1  0
 16 22  1  0
 16 17  1  1
 16 18  1  0
 19 24  1  0
 19 47  2  0
 20 21  1  0
 22 27  1  0
 22 23  1  1
 22 26  1  0
 24 28  2  0
 24 25  1  0
 27 30  1  0
 27 54  1  0
 27 33  1  6
 28 34  1  0
 28 29  1  0
 30 36  1  0
 30 31  1  6
 30 32  1  0
 33 37  1  0
 33 59  2  0
 34 38  2  0
 34 35  1  0
 36 43  1  0
 36 40  1  6
 36 41  1  0
 37 46  2  0
 37 42  1  0
 38 47  1  0
 38 39  1  0
 43 49  1  0
 43 44  1  1
 43 45  1  0
 46 52  1  0
 46 61  1  0
 47 48  1  0
 49 54  1  0
 49 50  1  6
 49 51  1  0
 52 57  2  0
 52 53  1  0
 54 55  1  1
 54 56  1  0
 57 59  1  0
 57 58  1  0
 59 60  1  0
 61 62  1  0
 61 65  1  0
 62 63  1  0
 62 66  1  1
 62 67  1  0
 63 64  1  0
 63 68  1  6
 63 69  1  0
 64 65  1  0
 65 70  2  0
M  CHG  1  22   1
M  END
