39charg
     RDKit          3D

 47 50  0  0  1  0  0  0  0  0999 V2000
    8.2482   43.6956   49.2023 C   0  0  0  0  0  0  0  0  0  0  0  0
    5.0583   45.5087   51.0336 C   0  0  2  0  0  0  0  0  0  0  0  0
    4.1116   45.9335   52.1616 C   0  0  1  0  0  0  0  0  0  0  0  0
    2.6434   45.6420   51.7806 C   0  0  2  0  0  0  0  0  0  0  0  0
    1.6780   46.0379   52.9087 C   0  0  2  0  0  0  0  0  0  0  0  0
    2.0402   45.3876   54.2573 C   0  0  2  0  0  0  0  0  0  0  0  0
    3.5105   45.6415   54.6400 C   0  0  2  0  0  0  0  0  0  0  0  0
    4.4816   45.2590   53.5069 C   0  0  2  0  0  0  0  0  0  0  0  0
    4.9844   41.1199   46.7951 C   0  0  0  0  0  0  0  0  0  0  0  0
    4.1198   40.9427   47.8801 C   0  0  0  0  0  0  0  0  0  0  0  0
    4.5771   41.2249   49.1748 C   0  0  0  0  0  0  0  0  0  0  0  0
    5.8639   41.7118   49.3699 C   0  0  0  0  0  0  0  0  0  0  0  0
    1.7524   40.8858   48.4972 O   0  0  0  0  0  0  0  0  0  0  0  0
    7.1909   44.3284   49.7713 N   0  0  0  0  0  0  0  0  0  0  0  0
    7.4326   45.3385   50.6407 C   0  0  0  0  0  0  0  0  0  0  0  0
    6.3926   45.9263   51.3326 O   0  0  0  0  0  0  0  0  0  0  0  0
    8.7413   45.7530   50.8985 C   0  0  0  0  0  0  0  0  0  0  0  0
    9.2672   46.7071   51.7272 N   0  0  0  0  0  0  0  0  0  0  0  0
   10.9139   45.6162   50.6358 N   0  0  0  0  0  0  0  0  0  0  0  0
    9.7489   45.0443   50.1983 C   0  0  0  0  0  0  0  0  0  0  0  0
    9.5629   44.0281   49.3423 N   0  0  0  0  0  0  0  0  0  0  0  0
    7.9563   42.5599   48.4378 N   0  0  0  0  0  0  0  0  0  0  0  0
    6.7029   41.9452   48.2745 C   0  0  0  0  0  0  0  0  0  0  0  0
    6.2717   41.6063   46.9969 C   0  0  0  0  0  0  0  0  0  0  0  0
    2.7167   40.4439   47.6397 C   0  0  0  0  0  0  0  0  0  0  0  0
   10.5572   46.5818   51.5517 C   0  0  0  0  0  0  0  0  0  0  0  0
    2.4488   39.7138   46.6874 O   0  0  0  0  0  0  0  0  0  0  0  0
    4.7587   45.9621   50.0876 H   0  0  0  0  0  0  0  0  0  0  0  0
    4.9777   44.4256   50.9181 H   0  0  0  0  0  0  0  0  0  0  0  0
    4.2087   47.0134   52.2849 H   0  0  0  0  0  0  0  0  0  0  0  0
    2.5172   44.5845   51.5481 H   0  0  0  0  0  0  0  0  0  0  0  0
    2.3808   46.1826   50.8709 H   0  0  0  0  0  0  0  0  0  0  0  0
    0.6503   45.7982   52.6336 H   0  0  0  0  0  0  0  0  0  0  0  0
    1.7272   47.1171   53.0213 H   0  0  0  0  0  0  0  0  0  0  0  0
    1.8534   44.3157   54.2127 H   0  0  0  0  0  0  0  0  0  0  0  0
    1.3851   45.7707   55.0404 H   0  0  0  0  0  0  0  0  0  0  0  0
    3.7619   45.0876   55.5447 H   0  0  0  0  0  0  0  0  0  0  0  0
    3.6400   46.6958   54.8872 H   0  0  0  0  0  0  0  0  0  0  0  0
    5.4975   45.5277   53.7996 H   0  0  0  0  0  0  0  0  0  0  0  0
    4.4806   44.1743   53.3883 H   0  0  0  0  0  0  0  0  0  0  0  0
    4.6664   40.8919   45.7874 H   0  0  0  0  0  0  0  0  0  0  0  0
    3.9453   41.0807   50.0384 H   0  0  0  0  0  0  0  0  0  0  0  0
    6.1914   41.9391   50.3733 H   0  0  0  0  0  0  0  0  0  0  0  0
   11.8641   45.3956   50.3650 H   0  0  0  0  0  0  0  0  0  0  0  0
    8.6939   42.2476   47.8221 H   0  0  0  0  0  0  0  0  0  0  0  0
    6.9164   41.7431   46.1492 H   0  0  0  0  0  0  0  0  0  0  0  0
   11.3211   47.1430   52.0673 H   0  0  0  0  0  0  0  0  0  0  0  0
  1 14  2  0
  1 21  1  0
  1 22  1  0
  2  3  1  0
  2 16  1  0
  2 28  1  6
  2 29  1  0
  3  4  1  0
  3  8  1  0
  3 30  1  1
  4  5  1  0
  4 31  1  6
  4 32  1  0
  5  6  1  0
  5 33  1  6
  5 34  1  0
  6  7  1  0
  6 35  1  6
  6 36  1  0
  7  8  1  0
  7 37  1  1
  7 38  1  0
  8 39  1  1
  8 40  1  0
  9 10  2  0
  9 24  1  0
  9 41  1  0
 10 11  1  0
 10 25  1  0
 11 12  2  0
 11 42  1  0
 12 23  1  0
 12 43  1  0
 13 25  1  0
 14 15  1  0
 15 16  1  0
 15 17  2  0
 17 18  1  0
 17 20  1  0
 18 26  2  0
 19 20  1  0
 19 26  1  0
 19 44  1  0
 20 21  2  0
 22 23  1  0
 22 45  1  0
 23 24  2  0
 24 46  1  0
 25 27  2  0
 26 47  1  0
M  CHG  1  13  -1
M  END
