3
     RDKit          3D

 55 57  0  0  1  0  0  0  0  0999 V2000
   16.2232  -15.6418   22.9325 N   0  0  1  0  0  0  0  0  0  0  0  0
   17.5054  -14.9590   22.9952 C   0  0  1  0  0  0  0  0  0  0  0  0
   17.2934  -13.5729   22.4355 C   0  0  0  0  0  0  0  0  0  0  0  0
   16.3886  -12.8719   22.8759 O   0  0  0  0  0  0  0  0  0  0  0  0
   17.9598  -14.9423   24.4591 C   0  0  2  0  0  0  0  0  0  0  0  0
   19.3729  -14.4226   24.5927 C   0  0  0  0  0  0  0  0  0  0  0  0
   19.6183  -13.3277   25.4078 C   0  0  0  0  0  0  0  0  0  0  0  0
   20.4216  -15.0296   23.9043 C   0  0  0  0  0  0  0  0  0  0  0  0
   20.9054  -12.8299   25.5265 C   0  0  0  0  0  0  0  0  0  0  0  0
   21.7137  -14.5349   24.0310 C   0  0  0  0  0  0  0  0  0  0  0  0
   21.9552  -13.4310   24.8401 C   0  0  0  0  0  0  0  0  0  0  0  0
   18.0882  -13.1419   21.4613 N   0  0  0  0  0  0  0  0  0  0  0  0
   17.8832  -11.8028   20.8856 C   0  0  2  0  0  0  0  0  0  0  0  0
   16.4801  -11.6385   20.3530 C   0  0  0  0  0  0  0  0  0  0  0  0
   15.9517  -12.5043   19.6531 O   0  0  0  0  0  0  0  0  0  0  0  0
   18.9149  -11.7238   19.7673 C   0  0  2  0  0  0  0  0  0  0  0  0
   19.9658  -12.7740   20.1078 C   0  0  2  0  0  0  0  0  0  0  0  0
   19.2019  -13.8670   20.8359 C   0  0  2  0  0  0  0  0  0  0  0  0
   14.4493  -10.2262   20.2708 C   0  0  2  0  0  0  0  0  0  0  0  0
   13.4395  -10.8312   21.2281 C   0  0  0  0  0  0  0  0  0  0  0  0
   12.7829  -10.0722   22.1894 C   0  0  0  0  0  0  0  0  0  0  0  0
   11.2115   -9.8112   24.0419 C   0  0  1  0  0  0  0  0  0  0  0  0
   11.6158  -11.9391   22.9704 C   0  0  0  0  0  0  0  0  0  0  0  0
   12.2434  -12.7451   22.0301 C   0  0  0  0  0  0  0  0  0  0  0  0
   13.1702  -12.1951   21.1589 C   0  0  0  0  0  0  0  0  0  0  0  0
   15.8263  -10.5294   20.6974 N   0  0  0  0  0  0  0  0  0  0  0  0
   11.8950  -10.6272   23.0266 N   0  0  0  0  0  0  0  0  0  0  0  0
   16.3213  -16.5777   23.2994 H   0  0  0  0  0  0  0  0  0  0  0  0
   15.5440  -15.1349   23.4818 H   0  0  0  0  0  0  0  0  0  0  0  0
   15.9124  -15.6880   21.9726 H   0  0  0  0  0  0  0  0  0  0  0  0
   18.2369  -15.4931   22.3887 H   0  0  0  0  0  0  0  0  0  0  0  0
   17.9042  -15.9513   24.8677 H   0  0  0  0  0  0  0  0  0  0  0  0
   17.2856  -14.3140   25.0411 H   0  0  0  0  0  0  0  0  0  0  0  0
   18.8065  -12.8645   25.9489 H   0  0  0  0  0  0  0  0  0  0  0  0
   20.2298  -15.8844   23.2726 H   0  0  0  0  0  0  0  0  0  0  0  0
   21.0969  -11.9719   26.1539 H   0  0  0  0  0  0  0  0  0  0  0  0
   22.5275  -15.0079   23.5014 H   0  0  0  0  0  0  0  0  0  0  0  0
   22.9573  -13.0399   24.9360 H   0  0  0  0  0  0  0  0  0  0  0  0
   18.0884  -11.0394   21.6361 H   0  0  0  0  0  0  0  0  0  0  0  0
   19.3762  -10.7362   19.7698 H   0  0  0  0  0  0  0  0  0  0  0  0
   18.4414  -11.9799   18.8195 H   0  0  0  0  0  0  0  0  0  0  0  0
   20.7052  -12.3402   20.7810 H   0  0  0  0  0  0  0  0  0  0  0  0
   20.3844  -13.1783   19.1862 H   0  0  0  0  0  0  0  0  0  0  0  0
   18.8065  -14.5756   20.1082 H   0  0  0  0  0  0  0  0  0  0  0  0
   19.8361  -14.2926   21.6135 H   0  0  0  0  0  0  0  0  0  0  0  0
   14.3109   -9.1457   20.2325 H   0  0  0  0  0  0  0  0  0  0  0  0
   14.2836  -10.6238   19.2696 H   0  0  0  0  0  0  0  0  0  0  0  0
   12.9841   -9.0144   22.2723 H   0  0  0  0  0  0  0  0  0  0  0  0
   10.5342  -10.4408   24.6190 H   0  0  0  0  0  0  0  0  0  0  0  0
   11.9500   -9.3663   24.7087 H   0  0  0  0  0  0  0  0  0  0  0  0
   10.6429   -9.0212   23.5513 H   0  0  0  0  0  0  0  0  0  0  0  0
   10.9017  -12.3674   23.6582 H   0  0  0  0  0  0  0  0  0  0  0  0
   12.0089  -13.7981   21.9788 H   0  0  0  0  0  0  0  0  0  0  0  0
   13.6811  -12.8103   20.4330 H   0  0  0  0  0  0  0  0  0  0  0  0
   16.2752   -9.8399   21.2832 H   0  0  0  0  0  0  0  0  0  0  0  0
  1  2  1  0
  1 28  1  1
  1 29  1  0
  1 30  1  0
  2  3  1  0
  2  5  1  0
  2 31  1  6
  3  4  2  0
  3 12  1  0
  5  6  1  0
  5 32  1  1
  5 33  1  0
  6  7  2  0
  6  8  1  0
  7  9  1  0
  7 34  1  0
  8 10  2  0
  8 35  1  0
  9 11  2  0
  9 36  1  0
 10 11  1  0
 10 37  1  0
 11 38  1  0
 12 13  1  0
 12 18  1  0
 13 14  1  0
 13 16  1  0
 13 39  1  1
 14 15  2  0
 14 26  1  0
 16 17  1  0
 16 40  1  6
 16 41  1  0
 17 18  1  0
 17 42  1  1
 17 43  1  0
 18 44  1  6
 18 45  1  0
 19 20  1  0
 19 26  1  0
 19 46  1  6
 19 47  1  0
 20 21  2  0
 20 25  1  0
 21 27  1  0
 21 48  1  0
 22 27  1  0
 22 49  1  1
 22 50  1  0
 22 51  1  0
 23 24  1  0
 23 27  2  0
 23 52  1  0
 24 25  2  0
 24 53  1  0
 25 54  1  0
 26 55  1  0
M  CHG  2   1   1  27   1
M  END
