jmb2009-4
     RDKit          3D

 58 60  0  0  1  0  0  0  0  0999 V2000
   16.3936  -15.8799   23.3121 N   0  0  1  0  0  0  0  0  0  0  0  0
   17.6924  -15.1716   23.3879 C   0  0  1  0  0  0  0  0  0  0  0  0
   17.6262  -13.8107   22.7426 C   0  0  0  0  0  0  0  0  0  0  0  0
   16.7295  -13.0490   23.0939 O   0  0  0  0  0  0  0  0  0  0  0  0
   18.1830  -15.0813   24.8614 C   0  0  2  0  0  0  0  0  0  0  0  0
   19.6151  -14.5789   24.9280 C   0  0  0  0  0  0  0  0  0  0  0  0
   20.6860  -15.3894   24.5401 C   0  0  0  0  0  0  0  0  0  0  0  0
   19.8784  -13.2901   25.3835 C   0  0  0  0  0  0  0  0  0  0  0  0
   21.9911  -14.9041   24.6096 C   0  0  0  0  0  0  0  0  0  0  0  0
   21.1755  -12.8038   25.4550 C   0  0  0  0  0  0  0  0  0  0  0  0
   22.2504  -13.6143   25.0641 C   0  0  0  0  0  0  0  0  0  0  0  0
   18.5190  -13.4072   21.7927 N   0  0  0  0  0  0  0  0  0  0  0  0
   18.3858  -12.1022   21.1925 C   0  0  2  0  0  0  0  0  0  0  0  0
   17.0398  -12.0175   20.4952 C   0  0  0  0  0  0  0  0  0  0  0  0
   16.5942  -12.9800   19.8845 O   0  0  0  0  0  0  0  0  0  0  0  0
   19.4786  -12.1739   20.0844 C   0  0  2  0  0  0  0  0  0  0  0  0
   20.5400  -13.0631   20.7768 C   0  0  2  0  0  0  0  0  0  0  0  0
   19.7018  -14.1904   21.4349 C   0  0  2  0  0  0  0  0  0  0  0  0
   16.4227  -10.8132   20.5676 N   0  0  0  0  0  0  0  0  0  0  0  0
   15.1448  -10.7495   19.8265 C   0  0  2  0  0  0  0  0  0  0  0  0
   14.0381  -10.7360   20.8968 C   0  0  0  0  0  0  0  0  0  0  0  0
   13.6161  -11.9319   21.4638 C   0  0  0  0  0  0  0  0  0  0  0  0
   12.6177  -11.9475   22.4343 C   0  0  0  0  0  0  0  0  0  0  0  0
   12.0172  -10.7572   22.8558 C   0  0  0  0  0  0  0  0  0  0  0  0
   10.8625  -10.7466   23.9740 C   0  0  0  0  0  0  0  0  0  0  0  0
   10.5697   -9.6132   24.5951 N   0  0  0  0  0  0  0  0  0  0  0  0
   10.2138  -11.8517   24.2684 N   0  0  0  0  0  0  0  0  0  0  0  0
   12.4502   -9.5683   22.2798 C   0  0  0  0  0  0  0  0  0  0  0  0
   13.4516   -9.5446   21.3062 C   0  0  0  0  0  0  0  0  0  0  0  0
   16.4768  -16.7847   23.7531 H   0  0  0  0  0  0  0  0  0  0  0  0
   15.6859  -15.3381   23.7871 H   0  0  0  0  0  0  0  0  0  0  0  0
   16.1314  -16.0006   22.3442 H   0  0  0  0  0  0  0  0  0  0  0  0
   18.4219  -15.7627   22.8342 H   0  0  0  0  0  0  0  0  0  0  0  0
   18.1219  -16.0658   25.3251 H   0  0  0  0  0  0  0  0  0  0  0  0
   17.5349  -14.4052   25.4189 H   0  0  0  0  0  0  0  0  0  0  0  0
   20.5029  -16.3931   24.1859 H   0  0  0  0  0  0  0  0  0  0  0  0
   19.0650  -12.6487   25.6892 H   0  0  0  0  0  0  0  0  0  0  0  0
   22.8172  -15.5313   24.3086 H   0  0  0  0  0  0  0  0  0  0  0  0
   21.3573  -11.8008   25.8118 H   0  0  0  0  0  0  0  0  0  0  0  0
   23.2669  -13.2525   25.1112 H   0  0  0  0  0  0  0  0  0  0  0  0
   18.5502  -11.2897   21.9003 H   0  0  0  0  0  0  0  0  0  0  0  0
   19.8941  -11.1784   19.9279 H   0  0  0  0  0  0  0  0  0  0  0  0
   19.0771  -12.7041   19.2209 H   0  0  0  0  0  0  0  0  0  0  0  0
   21.0416  -12.4865   21.5540 H   0  0  0  0  0  0  0  0  0  0  0  0
   21.1957  -13.4959   20.0212 H   0  0  0  0  0  0  0  0  0  0  0  0
   19.4263  -14.9178   20.6713 H   0  0  0  0  0  0  0  0  0  0  0  0
   20.2007  -14.5145   22.3483 H   0  0  0  0  0  0  0  0  0  0  0  0
   16.8432  -10.0613   21.0948 H   0  0  0  0  0  0  0  0  0  0  0  0
   15.0398  -11.6413   19.2086 H   0  0  0  0  0  0  0  0  0  0  0  0
   15.1048   -9.8236   19.2528 H   0  0  0  0  0  0  0  0  0  0  0  0
   14.0635  -12.8644   21.1528 H   0  0  0  0  0  0  0  0  0  0  0  0
   12.3010  -12.8845   22.8682 H   0  0  0  0  0  0  0  0  0  0  0  0
    9.8459   -9.5956   25.2993 H   0  0  0  0  0  0  0  0  0  0  0  0
   11.0704   -8.7669   24.3642 H   0  0  0  0  0  0  0  0  0  0  0  0
    9.4891  -11.8398   24.9718 H   0  0  0  0  0  0  0  0  0  0  0  0
   10.4402  -12.7126   23.7911 H   0  0  0  0  0  0  0  0  0  0  0  0
   12.0100   -8.6297   22.5828 H   0  0  0  0  0  0  0  0  0  0  0  0
   13.7706   -8.6086   20.8723 H   0  0  0  0  0  0  0  0  0  0  0  0
  1  2  1  0
  1 30  1  1
  1 31  1  0
  1 32  1  0
  2  3  1  0
  2  5  1  0
  2 33  1  6
  3  4  2  0
  3 12  1  0
  5  6  1  0
  5 34  1  1
  5 35  1  0
  6  7  2  0
  6  8  1  0
  7  9  1  0
  7 36  1  0
  8 10  2  0
  8 37  1  0
  9 11  2  0
  9 38  1  0
 10 11  1  0
 10 39  1  0
 11 40  1  0
 12 13  1  0
 12 18  1  0
 13 14  1  0
 13 16  1  0
 13 41  1  1
 14 15  2  0
 14 19  1  0
 16 17  1  0
 16 42  1  6
 16 43  1  0
 17 18  1  0
 17 44  1  1
 17 45  1  0
 18 46  1  6
 18 47  1  0
 19 20  1  0
 19 48  1  0
 20 21  1  0
 20 49  1  6
 20 50  1  0
 21 22  2  0
 21 29  1  0
 22 23  1  0
 22 51  1  0
 23 24  2  0
 23 52  1  0
 24 25  1  0
 24 28  1  0
 25 26  1  0
 25 27  2  0
 26 53  1  0
 26 54  1  0
 27 55  1  0
 27 56  1  0
 28 29  2  0
 28 57  1  0
 29 58  1  0
M  CHG  2   1   1  27   1
M  END
