2
     RDKit          3D

 51 53  0  0  1  0  0  0  0  0999 V2000
   19.5822  -14.4302   24.6980 C   0  0  0  0  0  0  0  0  0  0  0  0
   18.1497  -14.9424   24.6265 C   0  0  2  0  0  0  0  0  0  0  0  0
   17.6742  -15.0153   23.1644 C   0  0  1  0  0  0  0  0  0  0  0  0
   16.3610  -15.7394   23.0891 N   0  0  1  0  0  0  0  0  0  0  0  0
   17.4484  -13.6163   22.5674 C   0  0  0  0  0  0  0  0  0  0  0  0
   18.3163  -13.2192   21.5775 N   0  0  0  0  0  0  0  0  0  0  0  0
   16.5308  -12.9062   23.0095 O   0  0  0  0  0  0  0  0  0  0  0  0
   20.6441  -15.1011   24.0802 C   0  0  0  0  0  0  0  0  0  0  0  0
   21.9305  -14.5940   24.1744 C   0  0  0  0  0  0  0  0  0  0  0  0
   22.1789  -13.4150   24.8814 C   0  0  0  0  0  0  0  0  0  0  0  0
   21.1299  -12.7391   25.5012 C   0  0  0  0  0  0  0  0  0  0  0  0
   19.8465  -13.2462   25.4060 C   0  0  0  0  0  0  0  0  0  0  0  0
   18.1825  -11.8681   21.0047 C   0  0  2  0  0  0  0  0  0  0  0  0
   16.7246  -11.7482   20.4773 C   0  0  0  0  0  0  0  0  0  0  0  0
   16.2411  -12.6303   19.7279 O   0  0  0  0  0  0  0  0  0  0  0  0
   16.0641  -10.5808   20.7242 N   0  0  0  0  0  0  0  0  0  0  0  0
   14.7391  -10.3147   20.1863 C   0  0  2  0  0  0  0  0  0  0  0  0
   13.6944  -10.8749   21.0937 C   0  0  0  0  0  0  0  0  0  0  0  0
   19.1742  -11.8549   19.8209 C   0  0  2  0  0  0  0  0  0  0  0  0
   20.2190  -12.8361   20.2890 C   0  0  2  0  0  0  0  0  0  0  0  0
   19.4364  -13.9710   20.9638 C   0  0  2  0  0  0  0  0  0  0  0  0
   12.9079  -10.0629   21.8881 C   0  0  0  0  0  0  0  0  0  0  0  0
   11.9454  -10.5240   22.7287 N   0  0  0  0  0  0  0  0  0  0  0  0
   11.7524  -11.8611   22.7828 C   0  0  0  0  0  0  0  0  0  0  0  0
   12.4929  -12.7403   22.0242 C   0  0  0  0  0  0  0  0  0  0  0  0
   13.4674  -12.2341   21.1787 C   0  0  0  0  0  0  0  0  0  0  0  0
   17.4968  -14.2739   25.1877 H   0  0  0  0  0  0  0  0  0  0  0  0
   18.0960  -15.9341   25.0756 H   0  0  0  0  0  0  0  0  0  0  0  0
   18.4157  -15.5476   22.5687 H   0  0  0  0  0  0  0  0  0  0  0  0
   16.0549  -15.7835   22.1276 H   0  0  0  0  0  0  0  0  0  0  0  0
   16.4713  -16.6761   23.4502 H   0  0  0  0  0  0  0  0  0  0  0  0
   15.6720  -15.2461   23.6389 H   0  0  0  0  0  0  0  0  0  0  0  0
   20.4606  -16.0127   23.5310 H   0  0  0  0  0  0  0  0  0  0  0  0
   22.7509  -15.1111   23.6989 H   0  0  0  0  0  0  0  0  0  0  0  0
   23.1845  -13.0269   24.9478 H   0  0  0  0  0  0  0  0  0  0  0  0
   21.3230  -11.8287   26.0491 H   0  0  0  0  0  0  0  0  0  0  0  0
   19.0401  -12.7141   25.8887 H   0  0  0  0  0  0  0  0  0  0  0  0
   18.4139  -11.0934   21.7357 H   0  0  0  0  0  0  0  0  0  0  0  0
   16.4943   -9.8684   21.2965 H   0  0  0  0  0  0  0  0  0  0  0  0
   14.6483  -10.7731   19.2015 H   0  0  0  0  0  0  0  0  0  0  0  0
   14.5962   -9.2385   20.0889 H   0  0  0  0  0  0  0  0  0  0  0  0
   19.6232  -10.8648   19.7412 H   0  0  0  0  0  0  0  0  0  0  0  0
   18.6798  -12.2538   18.9353 H   0  0  0  0  0  0  0  0  0  0  0  0
   20.8638  -12.3546   21.0242 H   0  0  0  0  0  0  0  0  0  0  0  0
   20.7567  -13.2305   19.4268 H   0  0  0  0  0  0  0  0  0  0  0  0
   19.0415  -14.6377   20.1972 H   0  0  0  0  0  0  0  0  0  0  0  0
   20.0487  -14.4071   21.7531 H   0  0  0  0  0  0  0  0  0  0  0  0
   13.0406   -8.9913   21.8634 H   0  0  0  0  0  0  0  0  0  0  0  0
   10.9972  -12.2717   23.4367 H   0  0  0  0  0  0  0  0  0  0  0  0
   12.3090  -13.8021   22.0950 H   0  0  0  0  0  0  0  0  0  0  0  0
   14.0527  -12.9178   20.5817 H   0  0  0  0  0  0  0  0  0  0  0  0
  1  2  1  0
  1  8  2  0
  1 12  1  0
  2  3  1  0
  2 27  1  1
  2 28  1  0
  3  4  1  0
  3  5  1  0
  3 29  1  6
  4 30  1  6
  4 31  1  0
  4 32  1  0
  5  6  1  0
  5  7  2  0
  6 13  1  0
  6 21  1  0
  8  9  1  0
  8 33  1  0
  9 10  2  0
  9 34  1  0
 10 11  1  0
 10 35  1  0
 11 12  2  0
 11 36  1  0
 12 37  1  0
 13 14  1  0
 13 19  1  0
 13 38  1  1
 14 15  2  0
 14 16  1  0
 16 17  1  0
 16 39  1  0
 17 18  1  0
 17 40  1  6
 17 41  1  0
 18 22  1  0
 18 26  2  0
 19 20  1  0
 19 42  1  6
 19 43  1  0
 20 21  1  0
 20 44  1  1
 20 45  1  0
 21 46  1  6
 21 47  1  0
 22 23  2  0
 22 48  1  0
 23 24  1  0
 24 25  2  0
 24 49  1  0
 25 26  1  0
 25 50  1  0
 26 51  1  0
M  CHG  1   4   1
M  END
