17d
     RDKit          3D

 48 50  0  0  1  0  0  0  0  0999 V2000
  -21.7380   44.9910   85.5640 C   0  0  1  0  0  0  0  0  0  0  0  0
  -20.7560   44.1040   86.1430 O   0  0  0  0  0  0  0  0  0  0  0  0
  -20.9470   43.4660   87.3240 C   0  0  0  0  0  0  0  0  0  0  0  0
  -19.9350   42.6180   87.7770 C   0  0  0  0  0  0  0  0  0  0  0  0
  -20.0410   41.9630   88.9220 N   0  0  0  0  0  0  0  0  0  0  0  0
  -21.1790   42.1580   89.6320 C   0  0  0  0  0  0  0  0  0  0  0  0
  -22.1860   43.0080   89.1500 C   0  0  0  0  0  0  0  0  0  0  0  0
  -22.0770   43.6650   88.0020 N   0  0  0  0  0  0  0  0  0  0  0  0
  -21.3410   41.4810   90.9130 C   0  0  0  0  0  0  0  0  0  0  0  0
  -22.3860   41.4960   91.5450 O   0  0  0  0  0  0  0  0  0  0  0  0
  -20.2330   40.8160   91.4020 N   0  0  0  0  0  0  0  0  0  0  0  0
  -20.0210   40.1660   92.6460 C   0  0  0  0  0  0  0  0  0  0  0  0
  -21.0600   39.8170   93.5110 C   0  0  0  0  0  0  0  0  0  0  0  0
  -20.7620   39.2060   94.7130 C   0  0  0  0  0  0  0  0  0  0  0  0
  -19.4430   38.9310   95.0250 C   0  0  0  0  0  0  0  0  0  0  0  0
  -19.2410   38.3490   96.2010 F   0  0  0  0  0  0  0  0  0  0  0  0
  -18.3760   39.2270   94.1740 C   0  0  0  0  0  0  0  0  0  0  0  0
  -18.6930   39.8690   92.9720 C   0  0  0  0  0  0  0  0  0  0  0  0
  -16.9340   38.8090   94.5280 C   0  0  2  0  0  0  0  0  0  0  0  0
  -16.8630   37.2830   94.6850 C   0  0  1  0  0  0  0  0  0  0  0  0
  -16.4050   39.4700   95.8030 C   0  0  1  0  0  0  0  0  0  0  0  0
  -16.1370   40.9030   95.4400 C   0  0  0  0  0  0  0  0  0  0  0  0
  -16.4200   41.8040   96.1850 O   0  0  0  0  0  0  0  0  0  0  0  0
  -15.4720   41.2000   94.2580 N   0  0  0  0  0  0  0  0  0  0  0  0
  -14.9510   42.5620   94.0010 C   0  0  1  0  0  0  0  0  0  0  0  0
  -15.3340   40.2120   93.3710 C   0  0  0  0  0  0  0  0  0  0  0  0
  -14.5260   40.3100   92.3650 N   0  0  0  0  0  0  0  0  0  0  0  0
  -16.0090   39.1060   93.4600 N   0  0  0  0  0  0  0  0  0  0  0  0
  -21.3380   45.3660   84.6220 H   0  0  0  0  0  0  0  0  0  0  0  0
  -22.6550   44.4260   85.3960 H   0  0  0  0  0  0  0  0  0  0  0  0
  -21.9120   45.8130   86.2610 H   0  0  0  0  0  0  0  0  0  0  0  0
  -19.0600   42.4930   87.1920 H   0  0  0  0  0  0  0  0  0  0  0  0
  -23.0730   43.1440   89.7150 H   0  0  0  0  0  0  0  0  0  0  0  0
  -19.4320   40.8650   90.7520 H   0  0  0  0  0  0  0  0  0  0  0  0
  -22.0710   40.0080   93.2670 H   0  0  0  0  0  0  0  0  0  0  0  0
  -21.5350   38.9450   95.3900 H   0  0  0  0  0  0  0  0  0  0  0  0
  -17.9410   40.1330   92.2780 H   0  0  0  0  0  0  0  0  0  0  0  0
  -17.3820   36.9670   95.5870 H   0  0  0  0  0  0  0  0  0  0  0  0
  -17.3260   36.8170   93.8140 H   0  0  0  0  0  0  0  0  0  0  0  0
  -15.8190   36.9750   94.7610 H   0  0  0  0  0  0  0  0  0  0  0  0
  -17.1200   39.4370   96.6100 H   0  0  0  0  0  0  0  0  0  0  0  0
  -15.4600   39.0200   96.0720 H   0  0  0  0  0  0  0  0  0  0  0  0
  -15.4770   43.2780   94.6220 H   0  0  0  0  0  0  0  0  0  0  0  0
  -13.8960   42.5650   94.2460 H   0  0  0  0  0  0  0  0  0  0  0  0
  -15.1230   42.8120   92.9620 H   0  0  0  0  0  0  0  0  0  0  0  0
  -14.4000   39.5360   91.7030 H   0  0  0  0  0  0  0  0  0  0  0  0
  -13.9470   41.1530   92.2770 H   0  0  0  0  0  0  0  0  0  0  0  0
  -15.9110   38.4100   92.7140 H   0  0  0  0  0  0  0  0  0  0  0  0
  1  2  1  0
  1 29  1  6
  1 30  1  0
  1 31  1  0
  2  3  1  0
  3  4  1  0
  3  8  2  0
  4  5  2  0
  4 32  1  0
  5  6  1  0
  6  7  2  0
  6  9  1  0
  7  8  1  0
  7 33  1  0
  9 10  2  0
  9 11  1  0
 11 12  1  0
 11 34  1  0
 12 13  1  0
 12 18  2  0
 13 14  2  0
 13 35  1  0
 14 15  1  0
 14 36  1  0
 15 16  1  0
 15 17  2  0
 17 18  1  0
 19 17  1  6
 18 37  1  0
 19 20  1  0
 19 21  1  0
 19 28  1  0
 20 38  1  1
 20 39  1  0
 20 40  1  0
 21 22  1  0
 21 41  1  1
 21 42  1  0
 22 23  2  0
 22 24  1  0
 24 25  1  0
 24 26  1  0
 25 43  1  1
 25 44  1  0
 25 45  1  0
 26 27  1  0
 26 28  2  0
 27 46  1  0
 27 47  1  0
 28 48  1  0
M  CHG  1  28   1
M  END
