8f
     RDKit          3D

 52 54  0  0  1  0  0  0  0  0999 V2000
  -21.2160   46.3880   81.9830 C   0  0  1  0  0  0  0  0  0  0  0  0
  -21.6850   46.2970   83.3170 O   0  0  0  0  0  0  0  0  0  0  0  0
  -21.1350   45.1840   83.9880 C   0  0  1  0  0  0  0  0  0  0  0  0
  -21.6890   45.0840   85.4020 C   0  0  1  0  0  0  0  0  0  0  0  0
  -20.8280   44.1200   86.0210 O   0  0  0  0  0  0  0  0  0  0  0  0
  -20.9990   43.5160   87.2190 C   0  0  0  0  0  0  0  0  0  0  0  0
  -19.9990   42.6390   87.6440 C   0  0  0  0  0  0  0  0  0  0  0  0
  -20.0830   41.9930   88.7960 N   0  0  0  0  0  0  0  0  0  0  0  0
  -21.1900   42.2190   89.5410 C   0  0  0  0  0  0  0  0  0  0  0  0
  -22.1820   43.1070   89.0930 C   0  0  0  0  0  0  0  0  0  0  0  0
  -22.0910   43.7640   87.9390 N   0  0  0  0  0  0  0  0  0  0  0  0
  -21.3310   41.5340   90.8230 C   0  0  0  0  0  0  0  0  0  0  0  0
  -22.3690   41.5370   91.4660 O   0  0  0  0  0  0  0  0  0  0  0  0
  -20.2120   40.8760   91.3040 N   0  0  0  0  0  0  0  0  0  0  0  0
  -20.0000   40.2260   92.5500 C   0  0  0  0  0  0  0  0  0  0  0  0
  -21.0420   39.6880   93.3050 C   0  0  0  0  0  0  0  0  0  0  0  0
  -20.7520   39.0740   94.5100 C   0  0  0  0  0  0  0  0  0  0  0  0
  -19.4370   38.9990   94.9400 C   0  0  0  0  0  0  0  0  0  0  0  0
  -19.2660   38.4010   96.1090 F   0  0  0  0  0  0  0  0  0  0  0  0
  -18.3600   39.5190   94.2130 C   0  0  0  0  0  0  0  0  0  0  0  0
  -18.6780   40.1360   92.9960 C   0  0  0  0  0  0  0  0  0  0  0  0
  -16.8810   39.4890   94.6880 C   0  0  1  0  0  0  0  0  0  0  0  0
  -16.5180   38.4320   95.7400 C   0  0  1  0  0  0  0  0  0  0  0  0
  -16.0380   39.2300   93.5330 N   0  0  0  0  0  0  0  0  0  0  0  0
  -15.2790   40.2550   93.2980 C   0  0  0  0  0  0  0  0  0  0  0  0
  -14.4520   40.2630   92.3100 N   0  0  0  0  0  0  0  0  0  0  0  0
  -15.4570   41.2700   94.1310 N   0  0  0  0  0  0  0  0  0  0  0  0
  -14.7910   42.5760   94.0680 C   0  0  1  0  0  0  0  0  0  0  0  0
  -16.3530   40.8830   95.0980 C   0  0  0  0  0  0  0  0  0  0  0  0
  -16.6000   41.6260   96.0220 O   0  0  0  0  0  0  0  0  0  0  0  0
  -21.6660   47.2600   81.5070 H   0  0  0  0  0  0  0  0  0  0  0  0
  -20.1310   46.5030   81.9690 H   0  0  0  0  0  0  0  0  0  0  0  0
  -21.4980   45.4970   81.4190 H   0  0  0  0  0  0  0  0  0  0  0  0
  -21.3680   44.2610   83.4550 H   0  0  0  0  0  0  0  0  0  0  0  0
  -20.0510   45.2990   84.0450 H   0  0  0  0  0  0  0  0  0  0  0  0
  -21.6110   46.0460   85.9100 H   0  0  0  0  0  0  0  0  0  0  0  0
  -22.7220   44.7350   85.3840 H   0  0  0  0  0  0  0  0  0  0  0  0
  -19.1500   42.4820   87.0290 H   0  0  0  0  0  0  0  0  0  0  0  0
  -23.0440   43.2750   89.6890 H   0  0  0  0  0  0  0  0  0  0  0  0
  -19.4090   40.9430   90.6570 H   0  0  0  0  0  0  0  0  0  0  0  0
  -22.0440   39.7370   92.9660 H   0  0  0  0  0  0  0  0  0  0  0  0
  -21.5300   38.6620   95.1020 H   0  0  0  0  0  0  0  0  0  0  0  0
  -17.9210   40.5650   92.3940 H   0  0  0  0  0  0  0  0  0  0  0  0
  -16.9410   38.7260   96.7020 H   0  0  0  0  0  0  0  0  0  0  0  0
  -16.9080   37.4650   95.4210 H   0  0  0  0  0  0  0  0  0  0  0  0
  -15.4330   38.3800   95.8370 H   0  0  0  0  0  0  0  0  0  0  0  0
  -13.8600   41.0900   92.1620 H   0  0  0  0  0  0  0  0  0  0  0  0
  -14.3450   39.4380   91.7080 H   0  0  0  0  0  0  0  0  0  0  0  0
  -15.2480   43.2400   94.7930 H   0  0  0  0  0  0  0  0  0  0  0  0
  -13.7440   42.4300   94.3060 H   0  0  0  0  0  0  0  0  0  0  0  0
  -14.9210   42.9760   93.0700 H   0  0  0  0  0  0  0  0  0  0  0  0
  -16.0200   38.3670   92.9770 H   0  0  0  0  0  0  0  0  0  0  0  0
  1  2  1  0
  1 31  1  6
  1 32  1  0
  1 33  1  0
  2  3  1  0
  3  4  1  0
  3 34  1  6
  3 35  1  0
  4  5  1  0
  4 36  1  1
  4 37  1  0
  5  6  1  0
  6  7  1  0
  6 11  2  0
  7  8  2  0
  7 38  1  0
  8  9  1  0
  9 10  2  0
  9 12  1  0
 10 11  1  0
 10 39  1  0
 12 13  2  0
 12 14  1  0
 14 15  1  0
 14 40  1  0
 15 16  1  0
 15 21  2  0
 16 17  2  0
 16 41  1  0
 17 18  1  0
 17 42  1  0
 18 19  1  0
 18 20  2  0
 20 21  1  0
 22 20  1  6
 21 43  1  0
 22 23  1  0
 22 24  1  0
 22 29  1  0
 23 44  1  1
 23 45  1  0
 23 46  1  0
 24 25  2  0
 24 52  1  0
 25 26  1  0
 25 27  1  0
 26 47  1  0
 26 48  1  0
 27 28  1  0
 27 29  1  0
 28 49  1  1
 28 50  1  0
 28 51  1  0
 29 30  2  0
M  CHG  1  24   1
M  END
