17g
     RDKit          3D

 53 55  0  0  1  0  0  0  0  0999 V2000
  -20.8030   45.9750   81.7130 C   0  0  1  0  0  0  0  0  0  0  0  0
  -21.2120   45.6690   83.0940 C   0  0  0  0  0  0  0  0  0  0  0  0
  -21.5400   45.4190   84.2080 C   0  0  0  0  0  0  0  0  0  0  0  0
  -21.9450   45.1030   85.5840 C   0  0  2  0  0  0  0  0  0  0  0  0
  -20.9180   44.2140   86.0640 O   0  0  0  0  0  0  0  0  0  0  0  0
  -21.0380   43.5640   87.2490 C   0  0  0  0  0  0  0  0  0  0  0  0
  -20.0290   42.6780   87.6400 C   0  0  0  0  0  0  0  0  0  0  0  0
  -20.1000   42.0030   88.7820 N   0  0  0  0  0  0  0  0  0  0  0  0
  -21.1970   42.2170   89.5480 C   0  0  0  0  0  0  0  0  0  0  0  0
  -22.1930   43.1130   89.1300 C   0  0  0  0  0  0  0  0  0  0  0  0
  -22.1180   43.7900   87.9910 N   0  0  0  0  0  0  0  0  0  0  0  0
  -21.3440   41.5130   90.8200 C   0  0  0  0  0  0  0  0  0  0  0  0
  -22.3960   41.5100   91.4420 O   0  0  0  0  0  0  0  0  0  0  0  0
  -20.2330   40.8500   91.3190 N   0  0  0  0  0  0  0  0  0  0  0  0
  -20.0400   40.1770   92.5610 C   0  0  0  0  0  0  0  0  0  0  0  0
  -21.1000   39.8030   93.3910 C   0  0  0  0  0  0  0  0  0  0  0  0
  -20.8300   39.1820   94.5940 C   0  0  0  0  0  0  0  0  0  0  0  0
  -19.5160   38.9260   94.9440 C   0  0  0  0  0  0  0  0  0  0  0  0
  -19.3440   38.3380   96.1210 F   0  0  0  0  0  0  0  0  0  0  0  0
  -18.4250   39.2490   94.1350 C   0  0  0  0  0  0  0  0  0  0  0  0
  -18.7170   39.8930   92.9250 C   0  0  0  0  0  0  0  0  0  0  0  0
  -16.9840   38.8630   94.5480 C   0  0  2  0  0  0  0  0  0  0  0  0
  -16.8990   37.3390   94.7270 C   0  0  2  0  0  0  0  0  0  0  0  0
  -16.4890   39.5520   95.8370 C   0  0  2  0  0  0  0  0  0  0  0  0
  -16.1040   40.9670   95.4840 C   0  0  0  0  0  0  0  0  0  0  0  0
  -16.2940   41.8900   96.2380 O   0  0  0  0  0  0  0  0  0  0  0  0
  -15.4870   41.2390   94.2720 N   0  0  0  0  0  0  0  0  0  0  0  0
  -14.9880   42.6030   93.9760 C   0  0  1  0  0  0  0  0  0  0  0  0
  -15.3450   40.2330   93.4090 C   0  0  0  0  0  0  0  0  0  0  0  0
  -14.5140   40.2990   92.4180 N   0  0  0  0  0  0  0  0  0  0  0  0
  -16.0410   39.1420   93.4950 N   0  0  0  0  0  0  0  0  0  0  0  0
  -21.2850   46.9020   81.4370 H   0  0  0  0  0  0  0  0  0  0  0  0
  -19.7260   46.0690   81.7120 H   0  0  0  0  0  0  0  0  0  0  0  0
  -21.1330   45.1530   81.0930 H   0  0  0  0  0  0  0  0  0  0  0  0
  -22.8970   44.5880   85.5600 H   0  0  0  0  0  0  0  0  0  0  0  0
  -21.9510   46.0080   86.1760 H   0  0  0  0  0  0  0  0  0  0  0  0
  -19.1890   42.5350   87.0100 H   0  0  0  0  0  0  0  0  0  0  0  0
  -23.0480   43.2700   89.7400 H   0  0  0  0  0  0  0  0  0  0  0  0
  -19.4220   40.9080   90.6820 H   0  0  0  0  0  0  0  0  0  0  0  0
  -22.1060   39.9780   93.1190 H   0  0  0  0  0  0  0  0  0  0  0  0
  -21.6190   38.9020   95.2440 H   0  0  0  0  0  0  0  0  0  0  0  0
  -17.9460   40.1760   92.2590 H   0  0  0  0  0  0  0  0  0  0  0  0
  -15.8530   37.0410   94.8120 H   0  0  0  0  0  0  0  0  0  0  0  0
  -17.3530   36.8540   93.8610 H   0  0  0  0  0  0  0  0  0  0  0  0
  -17.4160   37.0290   95.6330 H   0  0  0  0  0  0  0  0  0  0  0  0
  -15.5920   39.0560   96.1770 H   0  0  0  0  0  0  0  0  0  0  0  0
  -17.2570   39.5750   96.5950 H   0  0  0  0  0  0  0  0  0  0  0  0
  -15.6140   43.3280   94.4830 H   0  0  0  0  0  0  0  0  0  0  0  0
  -13.9690   42.6690   94.3380 H   0  0  0  0  0  0  0  0  0  0  0  0
  -15.0490   42.7830   92.9100 H   0  0  0  0  0  0  0  0  0  0  0  0
  -14.3770   39.5070   91.7820 H   0  0  0  0  0  0  0  0  0  0  0  0
  -13.9070   41.1230   92.3400 H   0  0  0  0  0  0  0  0  0  0  0  0
  -15.9410   38.4390   92.7570 H   0  0  0  0  0  0  0  0  0  0  0  0
  1  2  1  0
  1 32  1  6
  1 33  1  0
  1 34  1  0
  2  3  3  0
  3  4  1  0
  4  5  1  0
  4 35  1  6
  4 36  1  0
  5  6  1  0
  6  7  1  0
  6 11  2  0
  7  8  2  0
  7 37  1  0
  8  9  1  0
  9 10  2  0
  9 12  1  0
 10 11  1  0
 10 38  1  0
 12 13  2  0
 12 14  1  0
 14 15  1  0
 14 39  1  0
 15 16  1  0
 15 21  2  0
 16 17  2  0
 16 40  1  0
 17 18  1  0
 17 41  1  0
 18 19  1  0
 18 20  2  0
 20 21  1  0
 22 20  1  6
 21 42  1  0
 22 23  1  0
 22 24  1  0
 22 31  1  0
 23 43  1  1
 23 44  1  0
 23 45  1  0
 24 25  1  0
 24 46  1  1
 24 47  1  0
 25 26  2  0
 25 27  1  0
 27 28  1  0
 27 29  1  0
 28 48  1  1
 28 49  1  0
 28 50  1  0
 29 30  1  0
 29 31  2  0
 30 51  1  0
 30 52  1  0
 31 53  1  0
M  CHG  1  31   1
M  END
