8c
     RDKit          3D

 43 45  0  0  1  0  0  0  0  0999 V2000
  -14.7460   42.5620   94.0970 C   0  0  2  0  0  0  0  0  0  0  0  0
  -15.4250   41.2620   94.1310 N   0  0  0  0  0  0  0  0  0  0  0  0
  -15.2660   40.2620   93.2740 C   0  0  0  0  0  0  0  0  0  0  0  0
  -14.4610   40.2890   92.2670 N   0  0  0  0  0  0  0  0  0  0  0  0
  -16.0160   39.2310   93.5090 N   0  0  0  0  0  0  0  0  0  0  0  0
  -16.8360   39.4710   94.6850 C   0  0  1  0  0  0  0  0  0  0  0  0
  -16.4420   38.4050   95.7160 C   0  0  1  0  0  0  0  0  0  0  0  0
  -16.3190   40.8640   95.0960 C   0  0  0  0  0  0  0  0  0  0  0  0
  -16.5810   41.5970   96.0220 O   0  0  0  0  0  0  0  0  0  0  0  0
  -18.3220   39.4990   94.2520 C   0  0  0  0  0  0  0  0  0  0  0  0
  -18.6680   40.0970   93.0350 C   0  0  0  0  0  0  0  0  0  0  0  0
  -19.9990   40.1810   92.6230 C   0  0  0  0  0  0  0  0  0  0  0  0
  -21.0240   39.6590   93.4110 C   0  0  0  0  0  0  0  0  0  0  0  0
  -20.7060   39.0680   94.6200 C   0  0  0  0  0  0  0  0  0  0  0  0
  -19.3800   38.9990   95.0190 C   0  0  0  0  0  0  0  0  0  0  0  0
  -19.1780   38.4300   96.1970 F   0  0  0  0  0  0  0  0  0  0  0  0
  -20.2280   40.8160   91.3780 N   0  0  0  0  0  0  0  0  0  0  0  0
  -21.3520   41.4670   90.9150 C   0  0  0  0  0  0  0  0  0  0  0  0
  -22.3880   41.4600   91.5640 O   0  0  0  0  0  0  0  0  0  0  0  0
  -21.2140   42.1770   89.6420 C   0  0  0  0  0  0  0  0  0  0  0  0
  -22.2180   43.0450   89.2040 C   0  0  0  0  0  0  0  0  0  0  0  0
  -22.0740   43.7310   88.0160 C   0  0  0  0  0  0  0  0  0  0  0  0
  -20.9190   43.5320   87.2730 C   0  0  0  0  0  0  0  0  0  0  0  0
  -20.7140   44.2160   86.0310 C   0  0  0  0  0  0  0  0  0  0  0  0
  -20.5480   44.7600   85.0420 N   0  0  0  0  0  0  0  0  0  0  0  0
  -19.9530   42.6510   87.7520 C   0  0  0  0  0  0  0  0  0  0  0  0
  -20.0970   41.9980   88.8970 N   0  0  0  0  0  0  0  0  0  0  0  0
  -14.7710   42.9370   93.0820 H   0  0  0  0  0  0  0  0  0  0  0  0
  -13.7300   42.4160   94.4430 H   0  0  0  0  0  0  0  0  0  0  0  0
  -15.2720   43.2460   94.7530 H   0  0  0  0  0  0  0  0  0  0  0  0
  -13.8840   41.1240   92.1100 H   0  0  0  0  0  0  0  0  0  0  0  0
  -14.3830   39.4810   91.6370 H   0  0  0  0  0  0  0  0  0  0  0  0
  -15.3540   38.3470   95.7760 H   0  0  0  0  0  0  0  0  0  0  0  0
  -16.8290   38.6910   96.6950 H   0  0  0  0  0  0  0  0  0  0  0  0
  -16.8470   37.4420   95.4030 H   0  0  0  0  0  0  0  0  0  0  0  0
  -17.9270   40.5170   92.4060 H   0  0  0  0  0  0  0  0  0  0  0  0
  -22.0330   39.7020   93.0960 H   0  0  0  0  0  0  0  0  0  0  0  0
  -21.4690   38.6690   95.2400 H   0  0  0  0  0  0  0  0  0  0  0  0
  -19.4320   40.8920   90.7250 H   0  0  0  0  0  0  0  0  0  0  0  0
  -23.0930   43.1780   89.7900 H   0  0  0  0  0  0  0  0  0  0  0  0
  -22.8330   44.3950   87.6810 H   0  0  0  0  0  0  0  0  0  0  0  0
  -19.0640   42.4830   87.1950 H   0  0  0  0  0  0  0  0  0  0  0  0
  -16.0270   38.3880   92.9230 H   0  0  0  0  0  0  0  0  0  0  0  0
  1  2  1  0
  1 28  1  6
  1 29  1  0
  1 30  1  0
  2  3  1  0
  2  8  1  0
  3  4  1  0
  3  5  2  0
  4 31  1  0
  4 32  1  0
  5  6  1  0
  5 43  1  0
  6  7  1  0
  6  8  1  0
  6 10  1  6
  7 33  1  1
  7 34  1  0
  7 35  1  0
  8  9  2  0
 10 11  2  0
 10 15  1  0
 11 12  1  0
 11 36  1  0
 12 13  2  0
 12 17  1  0
 13 14  1  0
 13 37  1  0
 14 15  2  0
 14 38  1  0
 15 16  1  0
 17 18  1  0
 17 39  1  0
 18 19  2  0
 18 20  1  0
 20 21  1  0
 20 27  2  0
 21 22  2  0
 21 40  1  0
 22 23  1  0
 22 41  1  0
 23 24  1  0
 23 26  2  0
 24 25  3  0
 26 27  1  0
 26 42  1  0
M  CHG  1   5   1
M  END
