8e
     RDKit          3D

 48 50  0  0  1  0  0  0  0  0999 V2000
  -14.7960   42.5760   94.0720 C   0  0  2  0  0  0  0  0  0  0  0  0
  -15.4580   41.2670   94.1330 N   0  0  0  0  0  0  0  0  0  0  0  0
  -15.2760   40.2530   93.3000 C   0  0  0  0  0  0  0  0  0  0  0  0
  -14.4470   40.2650   92.3130 N   0  0  0  0  0  0  0  0  0  0  0  0
  -16.0300   39.2240   93.5340 N   0  0  0  0  0  0  0  0  0  0  0  0
  -16.8750   39.4810   94.6890 C   0  0  1  0  0  0  0  0  0  0  0  0
  -16.5080   38.4270   95.7420 C   0  0  2  0  0  0  0  0  0  0  0  0
  -16.3570   40.8780   95.0960 C   0  0  0  0  0  0  0  0  0  0  0  0
  -16.6130   41.6170   96.0190 O   0  0  0  0  0  0  0  0  0  0  0  0
  -18.3530   39.5100   94.2170 C   0  0  0  0  0  0  0  0  0  0  0  0
  -18.6700   40.1250   92.9990 C   0  0  0  0  0  0  0  0  0  0  0  0
  -19.9920   40.2170   92.5550 C   0  0  0  0  0  0  0  0  0  0  0  0
  -21.0350   39.6840   93.3130 C   0  0  0  0  0  0  0  0  0  0  0  0
  -20.7440   39.0710   94.5190 C   0  0  0  0  0  0  0  0  0  0  0  0
  -19.4290   38.9930   94.9470 C   0  0  0  0  0  0  0  0  0  0  0  0
  -19.2560   38.3980   96.1160 F   0  0  0  0  0  0  0  0  0  0  0  0
  -20.2020   40.8660   91.3090 N   0  0  0  0  0  0  0  0  0  0  0  0
  -21.3190   41.5250   90.8300 C   0  0  0  0  0  0  0  0  0  0  0  0
  -22.3550   41.5330   91.4780 O   0  0  0  0  0  0  0  0  0  0  0  0
  -21.1810   42.2100   89.5480 C   0  0  0  0  0  0  0  0  0  0  0  0
  -22.1860   43.0830   89.1030 C   0  0  0  0  0  0  0  0  0  0  0  0
  -22.1020   43.7470   87.9560 N   0  0  0  0  0  0  0  0  0  0  0  0
  -21.0050   43.5260   87.2340 C   0  0  0  0  0  0  0  0  0  0  0  0
  -19.9910   42.6620   87.6530 C   0  0  0  0  0  0  0  0  0  0  0  0
  -20.0690   42.0050   88.8020 N   0  0  0  0  0  0  0  0  0  0  0  0
  -20.8620   44.1630   86.0430 O   0  0  0  0  0  0  0  0  0  0  0  0
  -21.9010   45.0140   85.4900 C   0  0  1  0  0  0  0  0  0  0  0  0
  -21.4640   45.4590   84.0920 C   0  0  2  0  0  0  0  0  0  0  0  0
  -20.3540   46.1810   84.1560 F   0  0  0  0  0  0  0  0  0  0  0  0
  -22.4210   46.2020   83.5640 F   0  0  0  0  0  0  0  0  0  0  0  0
  -21.2620   44.4120   83.3030 F   0  0  0  0  0  0  0  0  0  0  0  0
  -14.9500   42.9860   93.0820 H   0  0  0  0  0  0  0  0  0  0  0  0
  -13.7440   42.4290   94.2850 H   0  0  0  0  0  0  0  0  0  0  0  0
  -15.2380   43.2290   94.8150 H   0  0  0  0  0  0  0  0  0  0  0  0
  -14.3360   39.4400   91.7110 H   0  0  0  0  0  0  0  0  0  0  0  0
  -13.8590   41.0940   92.1660 H   0  0  0  0  0  0  0  0  0  0  0  0
  -15.4220   38.3770   95.8380 H   0  0  0  0  0  0  0  0  0  0  0  0
  -16.8960   37.4580   95.4250 H   0  0  0  0  0  0  0  0  0  0  0  0
  -16.9290   38.7200   96.7040 H   0  0  0  0  0  0  0  0  0  0  0  0
  -17.9140   40.5530   92.3950 H   0  0  0  0  0  0  0  0  0  0  0  0
  -22.0370   39.7330   92.9750 H   0  0  0  0  0  0  0  0  0  0  0  0
  -21.5220   38.6620   95.1120 H   0  0  0  0  0  0  0  0  0  0  0  0
  -19.3980   40.9310   90.6630 H   0  0  0  0  0  0  0  0  0  0  0  0
  -23.0530   43.2330   89.6980 H   0  0  0  0  0  0  0  0  0  0  0  0
  -19.1380   42.5230   87.0400 H   0  0  0  0  0  0  0  0  0  0  0  0
  -22.8350   44.4580   85.4090 H   0  0  0  0  0  0  0  0  0  0  0  0
  -22.0430   45.8910   86.1200 H   0  0  0  0  0  0  0  0  0  0  0  0
  -16.0080   38.3610   92.9780 H   0  0  0  0  0  0  0  0  0  0  0  0
  1  2  1  0
  1 32  1  6
  1 33  1  0
  1 34  1  0
  2  3  1  0
  2  8  1  0
  3  4  1  0
  3  5  2  0
  4 35  1  0
  4 36  1  0
  5  6  1  0
  5 48  1  0
  6  7  1  0
  6  8  1  0
  6 10  1  6
  7 37  1  1
  7 38  1  0
  7 39  1  0
  8  9  2  0
 10 11  2  0
 10 15  1  0
 11 12  1  0
 11 40  1  0
 12 13  2  0
 12 17  1  0
 13 14  1  0
 13 41  1  0
 14 15  2  0
 14 42  1  0
 15 16  1  0
 17 18  1  0
 17 43  1  0
 18 19  2  0
 18 20  1  0
 20 21  1  0
 20 25  2  0
 21 22  2  0
 21 44  1  0
 22 23  1  0
 23 24  2  0
 23 26  1  0
 24 25  1  0
 24 45  1  0
 26 27  1  0
 27 28  1  0
 27 46  1  6
 27 47  1  0
 28 29  1  1
 28 30  1  0
 28 31  1  0
M  CHG  1   5   1
M  END
