27b
     RDKit          3D

 48 50  0  0  1  0  0  0  0  0999 V2000
  -15.1600   42.6830   93.7990 C   0  0  1  0  0  0  0  0  0  0  0  0
  -15.4260   41.3020   94.2590 N   0  0  0  0  0  0  0  0  0  0  0  0
  -15.3780   40.2550   93.4290 C   0  0  0  0  0  0  0  0  0  0  0  0
  -14.5840   40.3080   92.4060 N   0  0  0  0  0  0  0  0  0  0  0  0
  -16.0670   39.1490   93.5360 N   0  0  0  0  0  0  0  0  0  0  0  0
  -17.0780   38.6930   94.5010 C   0  0  1  0  0  0  0  0  0  0  0  0
  -17.0580   37.1680   94.3140 C   0  0  1  0  0  0  0  0  0  0  0  0
  -16.7550   38.9800   95.9980 C   0  0  1  0  0  0  0  0  0  0  0  0
  -15.4510   39.7380   96.1940 C   0  0  2  0  0  0  0  0  0  0  0  0
  -15.7230   41.0860   95.5850 C   0  0  0  0  0  0  0  0  0  0  0  0
  -16.1300   42.0000   96.2530 O   0  0  0  0  0  0  0  0  0  0  0  0
  -18.4930   39.1730   94.1350 C   0  0  0  0  0  0  0  0  0  0  0  0
  -18.7670   39.8620   92.9500 C   0  0  0  0  0  0  0  0  0  0  0  0
  -20.0820   40.1900   92.6030 C   0  0  0  0  0  0  0  0  0  0  0  0
  -21.1450   39.8440   93.4420 C   0  0  0  0  0  0  0  0  0  0  0  0
  -20.8890   39.1870   94.6270 C   0  0  0  0  0  0  0  0  0  0  0  0
  -19.5870   38.8600   94.9490 C   0  0  0  0  0  0  0  0  0  0  0  0
  -19.4410   38.1860   96.0890 F   0  0  0  0  0  0  0  0  0  0  0  0
  -20.2630   40.8550   91.3610 N   0  0  0  0  0  0  0  0  0  0  0  0
  -21.3650   41.5260   90.8630 C   0  0  0  0  0  0  0  0  0  0  0  0
  -22.4140   41.5300   91.4920 O   0  0  0  0  0  0  0  0  0  0  0  0
  -21.2010   42.2190   89.5880 C   0  0  0  0  0  0  0  0  0  0  0  0
  -22.1880   43.1020   89.1340 C   0  0  0  0  0  0  0  0  0  0  0  0
  -22.0310   43.7710   87.9380 C   0  0  0  0  0  0  0  0  0  0  0  0
  -20.8760   43.5350   87.2080 C   0  0  0  0  0  0  0  0  0  0  0  0
  -20.6180   44.3390   85.6990 Cl  0  0  0  0  0  0  0  0  0  0  0  0
  -19.9220   42.6440   87.6970 C   0  0  0  0  0  0  0  0  0  0  0  0
  -20.0810   42.0080   88.8510 N   0  0  0  0  0  0  0  0  0  0  0  0
  -14.1400   42.9320   94.0660 H   0  0  0  0  0  0  0  0  0  0  0  0
  -15.3200   42.7480   92.7300 H   0  0  0  0  0  0  0  0  0  0  0  0
  -15.8510   43.3540   94.2950 H   0  0  0  0  0  0  0  0  0  0  0  0
  -13.9860   41.1360   92.2980 H   0  0  0  0  0  0  0  0  0  0  0  0
  -14.4950   39.5300   91.7430 H   0  0  0  0  0  0  0  0  0  0  0  0
  -17.7600   36.6950   95.0000 H   0  0  0  0  0  0  0  0  0  0  0  0
  -17.3520   36.9280   93.2910 H   0  0  0  0  0  0  0  0  0  0  0  0
  -16.0520   36.7950   94.5160 H   0  0  0  0  0  0  0  0  0  0  0  0
  -17.5370   39.5890   96.4540 H   0  0  0  0  0  0  0  0  0  0  0  0
  -16.7000   38.0520   96.5710 H   0  0  0  0  0  0  0  0  0  0  0  0
  -14.6160   39.2290   95.7300 H   0  0  0  0  0  0  0  0  0  0  0  0
  -15.2960   39.8790   97.2560 H   0  0  0  0  0  0  0  0  0  0  0  0
  -17.9920   40.1300   92.2830 H   0  0  0  0  0  0  0  0  0  0  0  0
  -22.1480   40.0600   93.1900 H   0  0  0  0  0  0  0  0  0  0  0  0
  -21.6820   38.9200   95.2780 H   0  0  0  0  0  0  0  0  0  0  0  0
  -19.4520   40.9050   90.7230 H   0  0  0  0  0  0  0  0  0  0  0  0
  -23.0610   43.2580   89.7160 H   0  0  0  0  0  0  0  0  0  0  0  0
  -22.7670   44.4450   87.5810 H   0  0  0  0  0  0  0  0  0  0  0  0
  -19.0410   42.4620   87.1340 H   0  0  0  0  0  0  0  0  0  0  0  0
  -15.9250   38.4740   92.7810 H   0  0  0  0  0  0  0  0  0  0  0  0
  1  2  1  0
  1 29  1  6
  1 30  1  0
  1 31  1  0
  2  3  1  0
  2 10  1  0
  3  4  1  0
  3  5  2  0
  4 32  1  0
  4 33  1  0
  5  6  1  0
  5 48  1  0
  6  7  1  0
  6  8  1  0
  6 12  1  6
  7 34  1  1
  7 35  1  0
  7 36  1  0
  8  9  1  0
  8 37  1  1
  8 38  1  0
  9 10  1  0
  9 39  1  6
  9 40  1  0
 10 11  2  0
 12 13  2  0
 12 17  1  0
 13 14  1  0
 13 41  1  0
 14 15  2  0
 14 19  1  0
 15 16  1  0
 15 42  1  0
 16 17  2  0
 16 43  1  0
 17 18  1  0
 19 20  1  0
 19 44  1  0
 20 21  2  0
 20 22  1  0
 22 23  1  0
 22 28  2  0
 23 24  2  0
 23 45  1  0
 24 25  1  0
 24 46  1  0
 25 26  1  0
 25 27  2  0
 27 28  1  0
 27 47  1  0
M  CHG  1   5   1
M  END
