27e
     RDKit          3D

 54 56  0  0  1  0  0  0  0  0999 V2000
  -15.1340   42.5770   93.9040 C   0  0  1  0  0  0  0  0  0  0  0  0
  -15.5880   41.2130   94.3200 N   0  0  0  0  0  0  0  0  0  0  0  0
  -15.4140   40.1830   93.4670 C   0  0  0  0  0  0  0  0  0  0  0  0
  -14.5310   40.2840   92.5200 N   0  0  0  0  0  0  0  0  0  0  0  0
  -16.0500   39.0530   93.4210 N   0  0  0  0  0  0  0  0  0  0  0  0
  -17.0460   38.5010   94.2830 C   0  0  1  0  0  0  0  0  0  0  0  0
  -17.1400   37.0260   93.8740 C   0  0  1  0  0  0  0  0  0  0  0  0
  -16.4510   38.5230   95.6930 C   0  0  2  0  0  0  0  0  0  0  0  0
  -16.6640   39.8820   96.3410 C   0  0  1  0  0  0  0  0  0  0  0  0
  -16.1510   41.0980   95.6060 C   0  0  0  0  0  0  0  0  0  0  0  0
  -16.2530   42.1170   96.2350 O   0  0  0  0  0  0  0  0  0  0  0  0
  -18.4430   39.1100   94.0430 C   0  0  0  0  0  0  0  0  0  0  0  0
  -18.7340   39.8190   92.8720 C   0  0  0  0  0  0  0  0  0  0  0  0
  -20.0430   40.2150   92.5760 C   0  0  0  0  0  0  0  0  0  0  0  0
  -21.0860   39.9220   93.4610 C   0  0  0  0  0  0  0  0  0  0  0  0
  -20.8110   39.2450   94.6340 C   0  0  0  0  0  0  0  0  0  0  0  0
  -19.5130   38.8500   94.9010 C   0  0  0  0  0  0  0  0  0  0  0  0
  -19.3360   38.1650   96.0240 F   0  0  0  0  0  0  0  0  0  0  0  0
  -20.2350   40.8870   91.3320 N   0  0  0  0  0  0  0  0  0  0  0  0
  -21.3410   41.5510   90.8290 C   0  0  0  0  0  0  0  0  0  0  0  0
  -22.3880   41.5610   91.4560 O   0  0  0  0  0  0  0  0  0  0  0  0
  -21.1890   42.2290   89.5450 C   0  0  0  0  0  0  0  0  0  0  0  0
  -22.1860   43.1070   89.0950 C   0  0  0  0  0  0  0  0  0  0  0  0
  -22.0970   43.7650   87.9450 N   0  0  0  0  0  0  0  0  0  0  0  0
  -21.0000   43.5340   87.2270 C   0  0  0  0  0  0  0  0  0  0  0  0
  -19.9940   42.6610   87.6490 C   0  0  0  0  0  0  0  0  0  0  0  0
  -20.0790   42.0080   88.8000 N   0  0  0  0  0  0  0  0  0  0  0  0
  -20.8530   44.1670   86.0350 O   0  0  0  0  0  0  0  0  0  0  0  0
  -21.8910   45.0200   85.4790 C   0  0  1  0  0  0  0  0  0  0  0  0
  -21.4560   45.4570   84.0760 C   0  0  2  0  0  0  0  0  0  0  0  0
  -21.2500   44.4050   83.2940 F   0  0  0  0  0  0  0  0  0  0  0  0
  -20.3480   46.1840   84.1340 F   0  0  0  0  0  0  0  0  0  0  0  0
  -22.4160   46.1940   83.5420 F   0  0  0  0  0  0  0  0  0  0  0  0
  -14.1460   42.7390   94.3170 H   0  0  0  0  0  0  0  0  0  0  0  0
  -15.1400   42.6620   92.8240 H   0  0  0  0  0  0  0  0  0  0  0  0
  -15.8270   43.3160   94.2880 H   0  0  0  0  0  0  0  0  0  0  0  0
  -13.9250   41.1110   92.5080 H   0  0  0  0  0  0  0  0  0  0  0  0
  -14.3380   39.5150   91.8700 H   0  0  0  0  0  0  0  0  0  0  0  0
  -17.8520   36.5180   94.5250 H   0  0  0  0  0  0  0  0  0  0  0  0
  -17.4930   36.9610   92.8440 H   0  0  0  0  0  0  0  0  0  0  0  0
  -16.1610   36.5510   93.9690 H   0  0  0  0  0  0  0  0  0  0  0  0
  -15.3860   38.2820   95.6670 H   0  0  0  0  0  0  0  0  0  0  0  0
  -16.9290   37.7710   96.3220 H   0  0  0  0  0  0  0  0  0  0  0  0
  -17.7160   40.0480   96.5130 H   0  0  0  0  0  0  0  0  0  0  0  0
  -16.1460   39.8610   97.2910 H   0  0  0  0  0  0  0  0  0  0  0  0
  -17.9760   40.0360   92.1670 H   0  0  0  0  0  0  0  0  0  0  0  0
  -22.0840   40.1970   93.2550 H   0  0  0  0  0  0  0  0  0  0  0  0
  -21.5880   39.0170   95.3180 H   0  0  0  0  0  0  0  0  0  0  0  0
  -19.4280   40.9270   90.6890 H   0  0  0  0  0  0  0  0  0  0  0  0
  -23.0520   43.2660   89.6880 H   0  0  0  0  0  0  0  0  0  0  0  0
  -19.1420   42.5120   87.0370 H   0  0  0  0  0  0  0  0  0  0  0  0
  -22.8270   44.4670   85.4020 H   0  0  0  0  0  0  0  0  0  0  0  0
  -22.0290   45.9010   86.1050 H   0  0  0  0  0  0  0  0  0  0  0  0
  -15.7970   38.4280   92.6530 H   0  0  0  0  0  0  0  0  0  0  0  0
  1  2  1  0
  1 34  1  1
  1 35  1  0
  1 36  1  0
  2  3  1  0
  2 10  1  0
  3  4  1  0
  3  5  2  0
  4 37  1  0
  4 38  1  0
  5  6  1  0
  5 54  1  0
  6  7  1  0
  6  8  1  0
  6 12  1  1
  7 39  1  1
  7 40  1  0
  7 41  1  0
  8  9  1  0
  8 42  1  6
  8 43  1  0
  9 10  1  0
  9 44  1  1
  9 45  1  0
 10 11  2  0
 12 13  2  0
 12 17  1  0
 13 14  1  0
 13 46  1  0
 14 15  2  0
 14 19  1  0
 15 16  1  0
 15 47  1  0
 16 17  2  0
 16 48  1  0
 17 18  1  0
 19 20  1  0
 19 49  1  0
 20 21  2  0
 20 22  1  0
 22 23  1  0
 22 27  2  0
 23 24  2  0
 23 50  1  0
 24 25  1  0
 25 26  2  0
 25 28  1  0
 26 27  1  0
 26 51  1  0
 28 29  1  0
 29 30  1  0
 29 52  1  6
 29 53  1  0
 30 31  1  6
 30 32  1  0
 30 33  1  0
M  CHG  1   5   1
M  END
