17c
     RDKit          3D

 46 48  0  0  1  0  0  0  0  0999 V2000
  -14.9360   42.5700   94.0160 C   0  0  1  0  0  0  0  0  0  0  0  0
  -15.4670   41.2090   94.2570 N   0  0  0  0  0  0  0  0  0  0  0  0
  -15.3380   40.2250   93.3630 C   0  0  0  0  0  0  0  0  0  0  0  0
  -14.5340   40.3210   92.3530 N   0  0  0  0  0  0  0  0  0  0  0  0
  -16.0150   39.1200   93.4520 N   0  0  0  0  0  0  0  0  0  0  0  0
  -16.9400   38.8230   94.5190 C   0  0  1  0  0  0  0  0  0  0  0  0
  -16.8700   37.2970   94.6740 C   0  0  1  0  0  0  0  0  0  0  0  0
  -16.4090   39.4790   95.7950 C   0  0  2  0  0  0  0  0  0  0  0  0
  -16.1300   40.9110   95.4380 C   0  0  0  0  0  0  0  0  0  0  0  0
  -16.4020   41.8070   96.1920 O   0  0  0  0  0  0  0  0  0  0  0  0
  -18.3810   39.2410   94.1630 C   0  0  0  0  0  0  0  0  0  0  0  0
  -18.6990   39.8830   92.9600 C   0  0  0  0  0  0  0  0  0  0  0  0
  -20.0270   40.1700   92.6300 C   0  0  0  0  0  0  0  0  0  0  0  0
  -21.0670   39.8090   93.4900 C   0  0  0  0  0  0  0  0  0  0  0  0
  -20.7680   39.2010   94.6940 C   0  0  0  0  0  0  0  0  0  0  0  0
  -19.4480   38.9380   95.0110 C   0  0  0  0  0  0  0  0  0  0  0  0
  -19.2460   38.3590   96.1900 F   0  0  0  0  0  0  0  0  0  0  0  0
  -20.2400   40.8230   91.3870 N   0  0  0  0  0  0  0  0  0  0  0  0
  -21.3530   41.4870   90.9080 C   0  0  0  0  0  0  0  0  0  0  0  0
  -22.3960   41.4890   91.5450 O   0  0  0  0  0  0  0  0  0  0  0  0
  -21.2050   42.1880   89.6320 C   0  0  0  0  0  0  0  0  0  0  0  0
  -22.2050   43.0590   89.1870 C   0  0  0  0  0  0  0  0  0  0  0  0
  -22.0560   43.7370   87.9950 C   0  0  0  0  0  0  0  0  0  0  0  0
  -20.9000   43.5280   87.2560 C   0  0  0  0  0  0  0  0  0  0  0  0
  -20.6900   44.2050   86.0110 C   0  0  0  0  0  0  0  0  0  0  0  0
  -20.5210   44.7440   85.0200 N   0  0  0  0  0  0  0  0  0  0  0  0
  -19.9390   42.6440   87.7420 C   0  0  0  0  0  0  0  0  0  0  0  0
  -20.0870   41.9990   88.8920 N   0  0  0  0  0  0  0  0  0  0  0  0
  -15.0140   42.8020   92.9610 H   0  0  0  0  0  0  0  0  0  0  0  0
  -15.5260   43.2880   94.5720 H   0  0  0  0  0  0  0  0  0  0  0  0
  -13.9070   42.5880   94.3540 H   0  0  0  0  0  0  0  0  0  0  0  0
  -14.4190   39.5500   91.6870 H   0  0  0  0  0  0  0  0  0  0  0  0
  -13.9570   41.1650   92.2610 H   0  0  0  0  0  0  0  0  0  0  0  0
  -17.3370   36.8330   93.8040 H   0  0  0  0  0  0  0  0  0  0  0  0
  -15.8260   36.9870   94.7450 H   0  0  0  0  0  0  0  0  0  0  0  0
  -17.3860   36.9790   95.5780 H   0  0  0  0  0  0  0  0  0  0  0  0
  -15.4680   39.0220   96.0650 H   0  0  0  0  0  0  0  0  0  0  0  0
  -17.1260   39.4470   96.6010 H   0  0  0  0  0  0  0  0  0  0  0  0
  -17.9460   40.1550   92.2690 H   0  0  0  0  0  0  0  0  0  0  0  0
  -22.0790   39.9870   93.2430 H   0  0  0  0  0  0  0  0  0  0  0  0
  -21.5420   38.9330   95.3680 H   0  0  0  0  0  0  0  0  0  0  0  0
  -19.4400   40.8810   90.7360 H   0  0  0  0  0  0  0  0  0  0  0  0
  -23.0800   43.2000   89.7700 H   0  0  0  0  0  0  0  0  0  0  0  0
  -22.8110   44.4010   87.6540 H   0  0  0  0  0  0  0  0  0  0  0  0
  -19.0510   42.4690   87.1870 H   0  0  0  0  0  0  0  0  0  0  0  0
  -15.9370   38.4360   92.6940 H   0  0  0  0  0  0  0  0  0  0  0  0
  1  2  1  0
  1 29  1  6
  1 30  1  0
  1 31  1  0
  2  3  1  0
  2  9  1  0
  3  4  1  0
  3  5  2  0
  4 32  1  0
  4 33  1  0
  5  6  1  0
  5 46  1  0
  6  7  1  0
  6  8  1  0
  6 11  1  6
  7 34  1  6
  7 35  1  0
  7 36  1  0
  8  9  1  0
  8 37  1  1
  8 38  1  0
  9 10  2  0
 11 12  2  0
 11 16  1  0
 12 13  1  0
 12 39  1  0
 13 14  2  0
 13 18  1  0
 14 15  1  0
 14 40  1  0
 15 16  2  0
 15 41  1  0
 16 17  1  0
 18 19  1  0
 18 42  1  0
 19 20  2  0
 19 21  1  0
 21 22  1  0
 21 28  2  0
 22 23  2  0
 22 43  1  0
 23 24  1  0
 23 44  1  0
 24 25  1  0
 24 27  2  0
 25 26  3  0
 27 28  1  0
 27 45  1  0
M  CHG  1   5   1
M  END
