17e
     RDKit          3D

 51 53  0  0  1  0  0  0  0  0999 V2000
  -15.0100   42.5920   93.9770 C   0  0  1  0  0  0  0  0  0  0  0  0
  -15.5090   41.2250   94.2570 N   0  0  0  0  0  0  0  0  0  0  0  0
  -15.3530   40.2240   93.3910 C   0  0  0  0  0  0  0  0  0  0  0  0
  -14.5180   40.3010   92.4050 N   0  0  0  0  0  0  0  0  0  0  0  0
  -16.0340   39.1240   93.4780 N   0  0  0  0  0  0  0  0  0  0  0  0
  -16.9820   38.8420   94.5270 C   0  0  1  0  0  0  0  0  0  0  0  0
  -16.9090   37.3170   94.6990 C   0  0  2  0  0  0  0  0  0  0  0  0
  -16.4860   39.5190   95.8120 C   0  0  1  0  0  0  0  0  0  0  0  0
  -16.1530   40.9420   95.4520 C   0  0  0  0  0  0  0  0  0  0  0  0
  -16.3750   41.8540   96.2060 O   0  0  0  0  0  0  0  0  0  0  0  0
  -18.4170   39.2500   94.1260 C   0  0  0  0  0  0  0  0  0  0  0  0
  -18.7060   39.9030   92.9210 C   0  0  0  0  0  0  0  0  0  0  0  0
  -20.0280   40.1940   92.5590 C   0  0  0  0  0  0  0  0  0  0  0  0
  -21.0870   39.8220   93.3900 C   0  0  0  0  0  0  0  0  0  0  0  0
  -20.8180   39.1990   94.5930 C   0  0  0  0  0  0  0  0  0  0  0  0
  -19.5060   38.9340   94.9410 C   0  0  0  0  0  0  0  0  0  0  0  0
  -19.3340   38.3440   96.1180 F   0  0  0  0  0  0  0  0  0  0  0  0
  -20.2200   40.8640   91.3160 N   0  0  0  0  0  0  0  0  0  0  0  0
  -21.3270   41.5360   90.8230 C   0  0  0  0  0  0  0  0  0  0  0  0
  -22.3700   41.5540   91.4580 O   0  0  0  0  0  0  0  0  0  0  0  0
  -21.1790   42.2190   89.5420 C   0  0  0  0  0  0  0  0  0  0  0  0
  -22.1800   43.0940   89.0940 C   0  0  0  0  0  0  0  0  0  0  0  0
  -22.0940   43.7560   87.9460 N   0  0  0  0  0  0  0  0  0  0  0  0
  -20.9960   43.5300   87.2270 C   0  0  0  0  0  0  0  0  0  0  0  0
  -19.9860   42.6620   87.6470 C   0  0  0  0  0  0  0  0  0  0  0  0
  -20.0680   42.0060   88.7970 N   0  0  0  0  0  0  0  0  0  0  0  0
  -20.8520   44.1650   86.0350 O   0  0  0  0  0  0  0  0  0  0  0  0
  -21.8920   45.0170   85.4820 C   0  0  1  0  0  0  0  0  0  0  0  0
  -21.4590   45.4600   84.0810 C   0  0  2  0  0  0  0  0  0  0  0  0
  -20.3490   46.1840   84.1410 F   0  0  0  0  0  0  0  0  0  0  0  0
  -22.4180   46.2000   83.5530 F   0  0  0  0  0  0  0  0  0  0  0  0
  -21.2560   44.4110   83.2950 F   0  0  0  0  0  0  0  0  0  0  0  0
  -15.0790   42.7860   92.9140 H   0  0  0  0  0  0  0  0  0  0  0  0
  -15.6280   43.3120   94.4990 H   0  0  0  0  0  0  0  0  0  0  0  0
  -13.9880   42.6500   94.3300 H   0  0  0  0  0  0  0  0  0  0  0  0
  -14.3700   39.5110   91.7670 H   0  0  0  0  0  0  0  0  0  0  0  0
  -13.9230   41.1340   92.3280 H   0  0  0  0  0  0  0  0  0  0  0  0
  -17.4320   37.0060   95.6010 H   0  0  0  0  0  0  0  0  0  0  0  0
  -15.8650   37.0120   94.7870 H   0  0  0  0  0  0  0  0  0  0  0  0
  -17.3620   36.8410   93.8290 H   0  0  0  0  0  0  0  0  0  0  0  0
  -17.2380   39.5160   96.5860 H   0  0  0  0  0  0  0  0  0  0  0  0
  -15.5680   39.0450   96.1300 H   0  0  0  0  0  0  0  0  0  0  0  0
  -17.9350   40.1840   92.2540 H   0  0  0  0  0  0  0  0  0  0  0  0
  -22.0930   40.0010   93.1200 H   0  0  0  0  0  0  0  0  0  0  0  0
  -21.6080   38.9210   95.2430 H   0  0  0  0  0  0  0  0  0  0  0  0
  -19.4130   40.9120   90.6720 H   0  0  0  0  0  0  0  0  0  0  0  0
  -23.0460   43.2490   89.6880 H   0  0  0  0  0  0  0  0  0  0  0  0
  -19.1330   42.5180   87.0340 H   0  0  0  0  0  0  0  0  0  0  0  0
  -22.8270   44.4620   85.4040 H   0  0  0  0  0  0  0  0  0  0  0  0
  -22.0320   45.8950   86.1110 H   0  0  0  0  0  0  0  0  0  0  0  0
  -15.9220   38.4180   92.7430 H   0  0  0  0  0  0  0  0  0  0  0  0
  1  2  1  0
  1 33  1  6
  1 34  1  0
  1 35  1  0
  2  3  1  0
  2  9  1  0
  3  4  1  0
  3  5  2  0
  4 36  1  0
  4 37  1  0
  5  6  1  0
  5 51  1  0
  6  7  1  0
  6  8  1  0
  6 11  1  6
  7 38  1  1
  7 39  1  0
  7 40  1  0
  8  9  1  0
  8 41  1  1
  8 42  1  0
  9 10  2  0
 11 12  2  0
 11 16  1  0
 12 13  1  0
 12 43  1  0
 13 14  2  0
 13 18  1  0
 14 15  1  0
 14 44  1  0
 15 16  2  0
 15 45  1  0
 16 17  1  0
 18 19  1  0
 18 46  1  0
 19 20  2  0
 19 21  1  0
 21 22  1  0
 21 26  2  0
 22 23  2  0
 22 47  1  0
 23 24  1  0
 24 25  2  0
 24 27  1  0
 25 26  1  0
 25 48  1  0
 27 28  1  0
 28 29  1  0
 28 49  1  6
 28 50  1  0
 29 30  1  1
 29 31  1  0
 29 32  1  0
M  CHG  1   5   1
M  END
