27f
     RDKit          3D

 58 60  0  0  1  0  0  0  0  0999 V2000
  -20.8452   45.6460   81.9364 C   0  0  1  0  0  0  0  0  0  0  0  0
  -21.4735   45.9158   83.1781 O   0  0  0  0  0  0  0  0  0  0  0  0
  -21.1383   44.9472   84.1573 C   0  0  1  0  0  0  0  0  0  0  0  0
  -21.8570   45.2050   85.4680 C   0  0  1  0  0  0  0  0  0  0  0  0
  -20.9230   44.2090   85.9590 O   0  0  0  0  0  0  0  0  0  0  0  0
  -21.0440   43.5850   87.1670 C   0  0  0  0  0  0  0  0  0  0  0  0
  -20.0370   42.7010   87.5710 C   0  0  0  0  0  0  0  0  0  0  0  0
  -20.1050   42.0430   88.7240 N   0  0  0  0  0  0  0  0  0  0  0  0
  -21.2000   42.2680   89.4890 C   0  0  0  0  0  0  0  0  0  0  0  0
  -22.1920   43.1640   89.0640 C   0  0  0  0  0  0  0  0  0  0  0  0
  -22.1200   43.8250   87.9150 N   0  0  0  0  0  0  0  0  0  0  0  0
  -21.3500   41.5740   90.7660 C   0  0  0  0  0  0  0  0  0  0  0  0
  -22.3980   41.5840   91.3940 O   0  0  0  0  0  0  0  0  0  0  0  0
  -20.2520   40.8930   91.2690 N   0  0  0  0  0  0  0  0  0  0  0  0
  -20.0940   40.2050   92.5070 C   0  0  0  0  0  0  0  0  0  0  0  0
  -21.1780   39.8380   93.3110 C   0  0  0  0  0  0  0  0  0  0  0  0
  -20.9510   39.1740   94.4980 C   0  0  0  0  0  0  0  0  0  0  0  0
  -19.6570   38.8580   94.8570 C   0  0  0  0  0  0  0  0  0  0  0  0
  -19.5360   38.1910   96.0030 F   0  0  0  0  0  0  0  0  0  0  0  0
  -18.5420   39.1830   94.0780 C   0  0  0  0  0  0  0  0  0  0  0  0
  -18.7860   39.8790   92.8890 C   0  0  0  0  0  0  0  0  0  0  0  0
  -17.1340   38.7280   94.5040 C   0  0  2  0  0  0  0  0  0  0  0  0
  -17.0790   37.1980   94.3680 C   0  0  1  0  0  0  0  0  0  0  0  0
  -16.8780   39.0760   95.9990 C   0  0  2  0  0  0  0  0  0  0  0  0
  -15.5420   39.7680   96.2330 C   0  0  1  0  0  0  0  0  0  0  0  0
  -15.7280   41.1270   95.6150 C   0  0  0  0  0  0  0  0  0  0  0  0
  -16.0630   42.0690   96.2850 O   0  0  0  0  0  0  0  0  0  0  0  0
  -15.4460   41.3210   94.2800 N   0  0  0  0  0  0  0  0  0  0  0  0
  -15.1990   42.6960   93.7920 C   0  0  1  0  0  0  0  0  0  0  0  0
  -15.3910   40.2640   93.4640 C   0  0  0  0  0  0  0  0  0  0  0  0
  -14.5690   40.2950   92.4620 N   0  0  0  0  0  0  0  0  0  0  0  0
  -16.0980   39.1690   93.5610 N   0  0  0  0  0  0  0  0  0  0  0  0
  -21.1651   44.6763   81.5512 H   0  0  0  0  0  0  0  0  0  0  0  0
  -21.1302   46.4168   81.2197 H   0  0  0  0  0  0  0  0  0  0  0  0
  -19.7610   45.6571   82.0498 H   0  0  0  0  0  0  0  0  0  0  0  0
  -21.4593   43.9626   83.8136 H   0  0  0  0  0  0  0  0  0  0  0  0
  -20.0591   44.9303   84.3212 H   0  0  0  0  0  0  0  0  0  0  0  0
  -21.7183   46.1483   85.9965 H   0  0  0  0  0  0  0  0  0  0  0  0
  -22.8826   44.8543   85.5885 H   0  0  0  0  0  0  0  0  0  0  0  0
  -19.1980   42.5470   86.9420 H   0  0  0  0  0  0  0  0  0  0  0  0
  -23.0420   43.3330   89.6760 H   0  0  0  0  0  0  0  0  0  0  0  0
  -19.4330   40.9410   90.6410 H   0  0  0  0  0  0  0  0  0  0  0  0
  -22.1760   40.0440   93.0320 H   0  0  0  0  0  0  0  0  0  0  0  0
  -21.7610   38.8960   95.1230 H   0  0  0  0  0  0  0  0  0  0  0  0
  -17.9920   40.1600   92.2490 H   0  0  0  0  0  0  0  0  0  0  0  0
  -17.3290   36.9200   93.3440 H   0  0  0  0  0  0  0  0  0  0  0  0
  -16.0740   36.8530   94.6190 H   0  0  0  0  0  0  0  0  0  0  0  0
  -17.7950   36.7300   95.0420 H   0  0  0  0  0  0  0  0  0  0  0  0
  -16.9070   38.1750   96.6160 H   0  0  0  0  0  0  0  0  0  0  0  0
  -17.6570   39.7420   96.3780 H   0  0  0  0  0  0  0  0  0  0  0  0
  -15.4140   39.9050   97.2980 H   0  0  0  0  0  0  0  0  0  0  0  0
  -14.7200   39.2180   95.7960 H   0  0  0  0  0  0  0  0  0  0  0  0
  -15.3250   42.7320   92.7170 H   0  0  0  0  0  0  0  0  0  0  0  0
  -15.9250   43.3590   94.2490 H   0  0  0  0  0  0  0  0  0  0  0  0
  -14.1950   42.9780   94.0860 H   0  0  0  0  0  0  0  0  0  0  0  0
  -14.4520   39.4970   91.8290 H   0  0  0  0  0  0  0  0  0  0  0  0
  -13.9440   41.1050   92.3760 H   0  0  0  0  0  0  0  0  0  0  0  0
  -15.9410   38.4850   92.8180 H   0  0  0  0  0  0  0  0  0  0  0  0
  1  2  1  0
  1 33  1  6
  1 34  1  0
  1 35  1  0
  2  3  1  0
  3  4  1  0
  3 36  1  6
  3 37  1  0
  4  5  1  0
  4 38  1  1
  4 39  1  0
  5  6  1  0
  6  7  1  0
  6 11  2  0
  7  8  2  0
  7 40  1  0
  8  9  1  0
  9 10  2  0
  9 12  1  0
 10 11  1  0
 10 41  1  0
 12 13  2  0
 12 14  1  0
 14 15  1  0
 14 42  1  0
 15 16  1  0
 15 21  2  0
 16 17  2  0
 16 43  1  0
 17 18  1  0
 17 44  1  0
 18 19  1  0
 18 20  2  0
 20 21  1  0
 22 20  1  6
 21 45  1  0
 22 23  1  0
 22 24  1  0
 22 32  1  0
 23 46  1  6
 23 47  1  0
 23 48  1  0
 24 25  1  0
 24 49  1  1
 24 50  1  0
 25 26  1  0
 25 51  1  1
 25 52  1  0
 26 27  2  0
 26 28  1  0
 28 29  1  0
 28 30  1  0
 29 53  1  6
 29 54  1  0
 29 55  1  0
 30 31  1  0
 30 32  2  0
 31 56  1  0
 31 57  1  0
 32 58  1  0
M  CHG  1  32   1
M  END
