17a
     RDKit          3D

 45 47  0  0  1  0  0  0  0  0999 V2000
  -19.6640   43.2140   86.6180 C   0  0  1  0  0  0  0  0  0  0  0  0
  -20.4750   42.9090   87.8440 C   0  0  0  0  0  0  0  0  0  0  0  0
  -20.1900   42.0990   88.7990 N   0  0  0  0  0  0  0  0  0  0  0  0
  -21.2600   42.2040   89.6480 C   0  0  0  0  0  0  0  0  0  0  0  0
  -22.1380   43.0870   89.1290 C   0  0  0  0  0  0  0  0  0  0  0  0
  -21.6490   43.5340   88.0060 O   0  0  0  0  0  0  0  0  0  0  0  0
  -21.4090   41.4910   90.9020 C   0  0  0  0  0  0  0  0  0  0  0  0
  -22.4530   41.4730   91.5340 O   0  0  0  0  0  0  0  0  0  0  0  0
  -20.2860   40.8390   91.3690 N   0  0  0  0  0  0  0  0  0  0  0  0
  -20.0590   40.1800   92.6070 C   0  0  0  0  0  0  0  0  0  0  0  0
  -21.0960   39.8070   93.4660 C   0  0  0  0  0  0  0  0  0  0  0  0
  -20.7940   39.2110   94.6730 C   0  0  0  0  0  0  0  0  0  0  0  0
  -19.4720   38.9670   94.9930 C   0  0  0  0  0  0  0  0  0  0  0  0
  -19.2680   38.4050   96.1780 F   0  0  0  0  0  0  0  0  0  0  0  0
  -18.4060   39.2710   94.1440 C   0  0  0  0  0  0  0  0  0  0  0  0
  -18.7270   39.9050   92.9390 C   0  0  0  0  0  0  0  0  0  0  0  0
  -16.9650   38.8600   94.5110 C   0  0  2  0  0  0  0  0  0  0  0  0
  -16.8870   37.3360   94.6900 C   0  0  1  0  0  0  0  0  0  0  0  0
  -16.4500   39.5230   95.7860 C   0  0  1  0  0  0  0  0  0  0  0  0
  -16.1420   40.9450   95.4270 C   0  0  0  0  0  0  0  0  0  0  0  0
  -16.3780   41.8380   96.1980 O   0  0  0  0  0  0  0  0  0  0  0  0
  -15.4420   41.2200   94.2610 N   0  0  0  0  0  0  0  0  0  0  0  0
  -14.8540   42.5600   94.0340 C   0  0  1  0  0  0  0  0  0  0  0  0
  -15.3290   40.2330   93.3650 C   0  0  0  0  0  0  0  0  0  0  0  0
  -14.5090   40.3140   92.3650 N   0  0  0  0  0  0  0  0  0  0  0  0
  -16.0340   39.1440   93.4470 N   0  0  0  0  0  0  0  0  0  0  0  0
  -19.3960   44.2700   86.6510 H   0  0  0  0  0  0  0  0  0  0  0  0
  -18.7750   42.5840   86.6230 H   0  0  0  0  0  0  0  0  0  0  0  0
  -20.2850   43.0080   85.7470 H   0  0  0  0  0  0  0  0  0  0  0  0
  -23.0750   43.4240   89.4960 H   0  0  0  0  0  0  0  0  0  0  0  0
  -19.4910   40.9240   90.7170 H   0  0  0  0  0  0  0  0  0  0  0  0
  -22.1110   39.9680   93.2170 H   0  0  0  0  0  0  0  0  0  0  0  0
  -21.5650   38.9390   95.3470 H   0  0  0  0  0  0  0  0  0  0  0  0
  -17.9730   40.1800   92.2500 H   0  0  0  0  0  0  0  0  0  0  0  0
  -17.4040   37.0280   95.5970 H   0  0  0  0  0  0  0  0  0  0  0  0
  -17.3500   36.8570   93.8260 H   0  0  0  0  0  0  0  0  0  0  0  0
  -15.8430   37.0320   94.7670 H   0  0  0  0  0  0  0  0  0  0  0  0
  -17.1780   39.5110   96.5820 H   0  0  0  0  0  0  0  0  0  0  0  0
  -15.5190   39.0580   96.0790 H   0  0  0  0  0  0  0  0  0  0  0  0
  -13.8100   42.5160   94.3180 H   0  0  0  0  0  0  0  0  0  0  0  0
  -14.9750   42.8250   92.9910 H   0  0  0  0  0  0  0  0  0  0  0  0
  -15.3740   43.2920   94.6400 H   0  0  0  0  0  0  0  0  0  0  0  0
  -14.4140   39.5480   91.6880 H   0  0  0  0  0  0  0  0  0  0  0  0
  -13.9230   41.1510   92.2710 H   0  0  0  0  0  0  0  0  0  0  0  0
  -15.9640   38.4590   92.6880 H   0  0  0  0  0  0  0  0  0  0  0  0
  1  2  1  0
  1 27  1  1
  1 28  1  0
  1 29  1  0
  2  3  2  0
  2  6  1  0
  3  4  1  0
  4  5  2  0
  4  7  1  0
  5  6  1  0
  5 30  1  0
  7  8  2  0
  7  9  1  0
  9 10  1  0
  9 31  1  0
 10 11  1  0
 10 16  2  0
 11 12  2  0
 11 32  1  0
 12 13  1  0
 12 33  1  0
 13 14  1  0
 13 15  2  0
 15 16  1  0
 17 15  1  6
 16 34  1  0
 17 18  1  0
 17 19  1  0
 17 26  1  0
 18 35  1  1
 18 36  1  0
 18 37  1  0
 19 20  1  0
 19 38  1  1
 19 39  1  0
 20 21  2  0
 20 22  1  0
 22 23  1  0
 22 24  1  0
 23 40  1  1
 23 41  1  0
 23 42  1  0
 24 25  1  0
 24 26  2  0
 25 43  1  0
 25 44  1  0
 26 45  1  0
M  CHG  1  26   1
M  END
