8g
     RDKit          3D

 50 52  0  0  1  0  0  0  0  0999 V2000
  -20.8000   45.9790   81.7300 C   0  0  1  0  0  0  0  0  0  0  0  0
  -21.2130   45.6690   83.1080 C   0  0  0  0  0  0  0  0  0  0  0  0
  -21.5450   45.4160   84.2200 C   0  0  0  0  0  0  0  0  0  0  0  0
  -21.9570   45.0960   85.5940 C   0  0  1  0  0  0  0  0  0  0  0  0
  -20.9340   44.2080   86.0760 O   0  0  0  0  0  0  0  0  0  0  0  0
  -21.0530   43.5570   87.2600 C   0  0  0  0  0  0  0  0  0  0  0  0
  -20.0370   42.6790   87.6500 C   0  0  0  0  0  0  0  0  0  0  0  0
  -20.1010   42.0040   88.7920 N   0  0  0  0  0  0  0  0  0  0  0  0
  -21.1990   42.2070   89.5600 C   0  0  0  0  0  0  0  0  0  0  0  0
  -22.2030   43.0950   89.1440 C   0  0  0  0  0  0  0  0  0  0  0  0
  -22.1340   43.7740   88.0040 N   0  0  0  0  0  0  0  0  0  0  0  0
  -21.3310   41.5040   90.8340 C   0  0  0  0  0  0  0  0  0  0  0  0
  -22.3730   41.4940   91.4720 O   0  0  0  0  0  0  0  0  0  0  0  0
  -20.2080   40.8540   91.3160 N   0  0  0  0  0  0  0  0  0  0  0  0
  -19.9940   40.2070   92.5620 C   0  0  0  0  0  0  0  0  0  0  0  0
  -21.0340   39.6750   93.3250 C   0  0  0  0  0  0  0  0  0  0  0  0
  -20.7400   39.0680   94.5310 C   0  0  0  0  0  0  0  0  0  0  0  0
  -19.4230   38.9940   94.9570 C   0  0  0  0  0  0  0  0  0  0  0  0
  -19.2480   38.4020   96.1270 F   0  0  0  0  0  0  0  0  0  0  0  0
  -18.3480   39.5110   94.2240 C   0  0  0  0  0  0  0  0  0  0  0  0
  -18.6700   40.1180   93.0030 C   0  0  0  0  0  0  0  0  0  0  0  0
  -16.8660   39.4860   94.6970 C   0  0  1  0  0  0  0  0  0  0  0  0
  -16.5010   38.4200   95.7370 C   0  0  1  0  0  0  0  0  0  0  0  0
  -16.0290   39.2320   93.5340 N   0  0  0  0  0  0  0  0  0  0  0  0
  -15.2680   40.2550   93.3030 C   0  0  0  0  0  0  0  0  0  0  0  0
  -14.4430   40.2650   92.3140 N   0  0  0  0  0  0  0  0  0  0  0  0
  -15.4430   41.2690   94.1390 N   0  0  0  0  0  0  0  0  0  0  0  0
  -14.7780   42.5760   94.0730 C   0  0  1  0  0  0  0  0  0  0  0  0
  -16.3300   40.8800   95.1130 C   0  0  0  0  0  0  0  0  0  0  0  0
  -16.5660   41.6310   96.0350 O   0  0  0  0  0  0  0  0  0  0  0  0
  -20.3940   45.0710   81.3060 H   0  0  0  0  0  0  0  0  0  0  0  0
  -21.6830   46.3070   81.1990 H   0  0  0  0  0  0  0  0  0  0  0  0
  -20.0560   46.7600   81.7870 H   0  0  0  0  0  0  0  0  0  0  0  0
  -21.9650   46.0000   86.1890 H   0  0  0  0  0  0  0  0  0  0  0  0
  -22.9090   44.5810   85.5650 H   0  0  0  0  0  0  0  0  0  0  0  0
  -19.1960   42.5430   87.0190 H   0  0  0  0  0  0  0  0  0  0  0  0
  -23.0580   43.2440   89.7550 H   0  0  0  0  0  0  0  0  0  0  0  0
  -19.4020   40.9280   90.6720 H   0  0  0  0  0  0  0  0  0  0  0  0
  -22.0370   39.7210   92.9900 H   0  0  0  0  0  0  0  0  0  0  0  0
  -21.5150   38.6590   95.1290 H   0  0  0  0  0  0  0  0  0  0  0  0
  -17.9160   40.5440   92.3960 H   0  0  0  0  0  0  0  0  0  0  0  0
  -15.4150   38.3640   95.8280 H   0  0  0  0  0  0  0  0  0  0  0  0
  -16.9160   38.7070   96.7030 H   0  0  0  0  0  0  0  0  0  0  0  0
  -16.8950   37.4570   95.4130 H   0  0  0  0  0  0  0  0  0  0  0  0
  -13.8470   41.0900   92.1690 H   0  0  0  0  0  0  0  0  0  0  0  0
  -14.3380   39.4410   91.7100 H   0  0  0  0  0  0  0  0  0  0  0  0
  -13.7380   42.4360   94.3420 H   0  0  0  0  0  0  0  0  0  0  0  0
  -14.8810   42.9610   93.0660 H   0  0  0  0  0  0  0  0  0  0  0  0
  -15.2570   43.2500   94.7740 H   0  0  0  0  0  0  0  0  0  0  0  0
  -16.0140   38.3710   92.9750 H   0  0  0  0  0  0  0  0  0  0  0  0
  1  2  1  0
  1 31  1  6
  1 32  1  0
  1 33  1  0
  2  3  3  0
  3  4  1  0
  4  5  1  0
  4 34  1  1
  4 35  1  0
  5  6  1  0
  6  7  1  0
  6 11  2  0
  7  8  2  0
  7 36  1  0
  8  9  1  0
  9 10  2  0
  9 12  1  0
 10 11  1  0
 10 37  1  0
 12 13  2  0
 12 14  1  0
 14 15  1  0
 14 38  1  0
 15 16  1  0
 15 21  2  0
 16 17  2  0
 16 39  1  0
 17 18  1  0
 17 40  1  0
 18 19  1  0
 18 20  2  0
 20 21  1  0
 22 20  1  6
 21 41  1  0
 22 23  1  0
 22 24  1  0
 22 29  1  0
 23 42  1  1
 23 43  1  0
 23 44  1  0
 24 25  2  0
 24 50  1  0
 25 26  1  0
 25 27  1  0
 26 45  1  0
 26 46  1  0
 27 28  1  0
 27 29  1  0
 28 47  1  1
 28 48  1  0
 28 49  1  0
 29 30  2  0
M  CHG  1  24   1
M  END
