27d
     RDKit          3D

 51 53  0  0  1  0  0  0  0  0999 V2000
  -21.7250   45.0130   85.5270 C   0  0  1  0  0  0  0  0  0  0  0  0
  -20.7500   44.1190   86.1050 O   0  0  0  0  0  0  0  0  0  0  0  0
  -20.9420   43.4860   87.2890 C   0  0  0  0  0  0  0  0  0  0  0  0
  -19.9360   42.6320   87.7440 C   0  0  0  0  0  0  0  0  0  0  0  0
  -20.0440   41.9830   88.8920 N   0  0  0  0  0  0  0  0  0  0  0  0
  -21.1800   42.1900   89.6020 C   0  0  0  0  0  0  0  0  0  0  0  0
  -22.1810   43.0450   89.1180 C   0  0  0  0  0  0  0  0  0  0  0  0
  -22.0690   43.6970   87.9680 N   0  0  0  0  0  0  0  0  0  0  0  0
  -21.3510   41.5190   90.8840 C   0  0  0  0  0  0  0  0  0  0  0  0
  -22.3990   41.5380   91.5100 O   0  0  0  0  0  0  0  0  0  0  0  0
  -20.2510   40.8490   91.3860 N   0  0  0  0  0  0  0  0  0  0  0  0
  -20.0680   40.1880   92.6290 C   0  0  0  0  0  0  0  0  0  0  0  0
  -21.1290   39.8530   93.4740 C   0  0  0  0  0  0  0  0  0  0  0  0
  -20.8710   39.1890   94.6550 C   0  0  0  0  0  0  0  0  0  0  0  0
  -19.5690   38.8490   94.9670 C   0  0  0  0  0  0  0  0  0  0  0  0
  -19.4230   38.1660   96.1010 F   0  0  0  0  0  0  0  0  0  0  0  0
  -18.4770   39.1580   94.1500 C   0  0  0  0  0  0  0  0  0  0  0  0
  -18.7530   39.8510   92.9670 C   0  0  0  0  0  0  0  0  0  0  0  0
  -17.0620   38.6670   94.5040 C   0  0  2  0  0  0  0  0  0  0  0  0
  -17.0550   37.1440   94.3020 C   0  0  2  0  0  0  0  0  0  0  0  0
  -16.7210   38.9400   96.0010 C   0  0  2  0  0  0  0  0  0  0  0  0
  -15.4400   39.7380   96.1920 C   0  0  2  0  0  0  0  0  0  0  0  0
  -15.7430   41.0780   95.5760 C   0  0  0  0  0  0  0  0  0  0  0  0
  -16.1660   41.9900   96.2360 O   0  0  0  0  0  0  0  0  0  0  0  0
  -15.4540   41.2910   94.2480 N   0  0  0  0  0  0  0  0  0  0  0  0
  -15.2300   42.6760   93.7760 C   0  0  1  0  0  0  0  0  0  0  0  0
  -15.3790   40.2390   93.4270 C   0  0  0  0  0  0  0  0  0  0  0  0
  -14.5780   40.2980   92.4110 N   0  0  0  0  0  0  0  0  0  0  0  0
  -16.0540   39.1250   93.5370 N   0  0  0  0  0  0  0  0  0  0  0  0
  -21.8890   45.8380   86.2220 H   0  0  0  0  0  0  0  0  0  0  0  0
  -21.3260   45.3810   84.5820 H   0  0  0  0  0  0  0  0  0  0  0  0
  -22.6480   44.4560   85.3640 H   0  0  0  0  0  0  0  0  0  0  0  0
  -19.0630   42.4970   87.1590 H   0  0  0  0  0  0  0  0  0  0  0  0
  -23.0660   43.1910   89.6840 H   0  0  0  0  0  0  0  0  0  0  0  0
  -19.4410   40.8920   90.7470 H   0  0  0  0  0  0  0  0  0  0  0  0
  -22.1310   40.0820   93.2290 H   0  0  0  0  0  0  0  0  0  0  0  0
  -21.6620   38.9280   95.3100 H   0  0  0  0  0  0  0  0  0  0  0  0
  -17.9810   40.1120   92.2950 H   0  0  0  0  0  0  0  0  0  0  0  0
  -17.3610   36.9160   93.2800 H   0  0  0  0  0  0  0  0  0  0  0  0
  -17.7540   36.6710   94.9910 H   0  0  0  0  0  0  0  0  0  0  0  0
  -16.0520   36.7600   94.4910 H   0  0  0  0  0  0  0  0  0  0  0  0
  -16.6270   38.0050   96.5570 H   0  0  0  0  0  0  0  0  0  0  0  0
  -17.5120   39.5180   96.4820 H   0  0  0  0  0  0  0  0  0  0  0  0
  -14.5920   39.2500   95.7310 H   0  0  0  0  0  0  0  0  0  0  0  0
  -15.2880   39.8880   97.2530 H   0  0  0  0  0  0  0  0  0  0  0  0
  -14.2340   42.9730   94.0800 H   0  0  0  0  0  0  0  0  0  0  0  0
  -15.3490   42.7200   92.7000 H   0  0  0  0  0  0  0  0  0  0  0  0
  -15.9720   43.3200   94.2330 H   0  0  0  0  0  0  0  0  0  0  0  0
  -14.4630   39.5130   91.7610 H   0  0  0  0  0  0  0  0  0  0  0  0
  -13.9820   41.1290   92.3110 H   0  0  0  0  0  0  0  0  0  0  0  0
  -15.8880   38.4390   92.7970 H   0  0  0  0  0  0  0  0  0  0  0  0
  1  2  1  0
  1 30  1  1
  1 31  1  0
  1 32  1  0
  2  3  1  0
  3  4  1  0
  3  8  2  0
  4  5  2  0
  4 33  1  0
  5  6  1  0
  6  7  2  0
  6  9  1  0
  7  8  1  0
  7 34  1  0
  9 10  2  0
  9 11  1  0
 11 12  1  0
 11 35  1  0
 12 13  1  0
 12 18  2  0
 13 14  2  0
 13 36  1  0
 14 15  1  0
 14 37  1  0
 15 16  1  0
 15 17  2  0
 17 18  1  0
 19 17  1  6
 18 38  1  0
 19 20  1  0
 19 21  1  0
 19 29  1  0
 20 39  1  6
 20 40  1  0
 20 41  1  0
 21 22  1  0
 21 42  1  1
 21 43  1  0
 22 23  1  0
 22 44  1  6
 22 45  1  0
 23 24  2  0
 23 25  1  0
 25 26  1  0
 25 27  1  0
 26 46  1  6
 26 47  1  0
 26 48  1  0
 27 28  1  0
 27 29  2  0
 28 49  1  0
 28 50  1  0
 29 51  1  0
M  CHG  1  29   1
M  END
