17f
     RDKit          3D

 55 57  0  0  1  0  0  0  0  0999 V2000
  -21.1820   46.3790   81.9680 C   0  0  1  0  0  0  0  0  0  0  0  0
  -21.6610   46.2990   83.2990 O   0  0  0  0  0  0  0  0  0  0  0  0
  -21.1300   45.1800   83.9740 C   0  0  2  0  0  0  0  0  0  0  0  0
  -21.6860   45.0910   85.3890 C   0  0  2  0  0  0  0  0  0  0  0  0
  -20.8270   44.1270   86.0140 O   0  0  0  0  0  0  0  0  0  0  0  0
  -20.9970   43.5240   87.2120 C   0  0  0  0  0  0  0  0  0  0  0  0
  -19.9990   42.6440   87.6360 C   0  0  0  0  0  0  0  0  0  0  0  0
  -20.0840   41.9970   88.7880 N   0  0  0  0  0  0  0  0  0  0  0  0
  -21.1890   42.2290   89.5340 C   0  0  0  0  0  0  0  0  0  0  0  0
  -22.1790   43.1200   89.0860 C   0  0  0  0  0  0  0  0  0  0  0  0
  -22.0880   43.7760   87.9320 N   0  0  0  0  0  0  0  0  0  0  0  0
  -21.3390   41.5430   90.8140 C   0  0  0  0  0  0  0  0  0  0  0  0
  -22.3840   41.5540   91.4450 O   0  0  0  0  0  0  0  0  0  0  0  0
  -20.2300   40.8710   91.3090 N   0  0  0  0  0  0  0  0  0  0  0  0
  -20.0370   40.1980   92.5520 C   0  0  0  0  0  0  0  0  0  0  0  0
  -21.0970   39.8200   93.3790 C   0  0  0  0  0  0  0  0  0  0  0  0
  -20.8290   39.1970   94.5820 C   0  0  0  0  0  0  0  0  0  0  0  0
  -19.5170   38.9390   94.9340 C   0  0  0  0  0  0  0  0  0  0  0  0
  -19.3460   38.3500   96.1120 F   0  0  0  0  0  0  0  0  0  0  0  0
  -18.4250   39.2590   94.1240 C   0  0  0  0  0  0  0  0  0  0  0  0
  -18.7150   39.9120   92.9180 C   0  0  0  0  0  0  0  0  0  0  0  0
  -16.9890   38.8540   94.5300 C   0  0  2  0  0  0  0  0  0  0  0  0
  -16.9170   37.3290   94.7030 C   0  0  1  0  0  0  0  0  0  0  0  0
  -16.4880   39.5280   95.8170 C   0  0  2  0  0  0  0  0  0  0  0  0
  -16.1340   40.9490   95.4620 C   0  0  0  0  0  0  0  0  0  0  0  0
  -16.3470   41.8620   96.2180 O   0  0  0  0  0  0  0  0  0  0  0  0
  -15.5030   41.2310   94.2600 N   0  0  0  0  0  0  0  0  0  0  0  0
  -15.0040   42.5960   93.9750 C   0  0  1  0  0  0  0  0  0  0  0  0
  -15.3540   40.2290   93.3930 C   0  0  0  0  0  0  0  0  0  0  0  0
  -14.5230   40.3020   92.4040 N   0  0  0  0  0  0  0  0  0  0  0  0
  -16.0410   39.1320   93.4810 N   0  0  0  0  0  0  0  0  0  0  0  0
  -21.4750   45.4920   81.4040 H   0  0  0  0  0  0  0  0  0  0  0  0
  -21.6160   47.2570   81.4880 H   0  0  0  0  0  0  0  0  0  0  0  0
  -20.0960   46.4780   81.9600 H   0  0  0  0  0  0  0  0  0  0  0  0
  -20.0450   45.2790   84.0330 H   0  0  0  0  0  0  0  0  0  0  0  0
  -21.3760   44.2590   83.4430 H   0  0  0  0  0  0  0  0  0  0  0  0
  -22.7200   44.7450   85.3720 H   0  0  0  0  0  0  0  0  0  0  0  0
  -21.6050   46.0560   85.8910 H   0  0  0  0  0  0  0  0  0  0  0  0
  -19.1510   42.4840   87.0210 H   0  0  0  0  0  0  0  0  0  0  0  0
  -23.0390   43.2910   89.6830 H   0  0  0  0  0  0  0  0  0  0  0  0
  -19.4230   40.9220   90.6660 H   0  0  0  0  0  0  0  0  0  0  0  0
  -22.1030   39.9960   93.1050 H   0  0  0  0  0  0  0  0  0  0  0  0
  -21.6200   38.9150   95.2290 H   0  0  0  0  0  0  0  0  0  0  0  0
  -17.9430   40.1950   92.2530 H   0  0  0  0  0  0  0  0  0  0  0  0
  -17.4380   37.0190   95.6060 H   0  0  0  0  0  0  0  0  0  0  0  0
  -17.3740   36.8520   93.8340 H   0  0  0  0  0  0  0  0  0  0  0  0
  -15.8730   37.0220   94.7880 H   0  0  0  0  0  0  0  0  0  0  0  0
  -15.5780   39.0440   96.1390 H   0  0  0  0  0  0  0  0  0  0  0  0
  -17.2440   39.5350   96.5870 H   0  0  0  0  0  0  0  0  0  0  0  0
  -15.0760   42.7880   92.9110 H   0  0  0  0  0  0  0  0  0  0  0  0
  -15.6210   43.3170   94.4970 H   0  0  0  0  0  0  0  0  0  0  0  0
  -13.9810   42.6560   94.3250 H   0  0  0  0  0  0  0  0  0  0  0  0
  -14.3810   39.5120   91.7650 H   0  0  0  0  0  0  0  0  0  0  0  0
  -13.9230   41.1310   92.3260 H   0  0  0  0  0  0  0  0  0  0  0  0
  -15.9350   38.4280   92.7450 H   0  0  0  0  0  0  0  0  0  0  0  0
  1  2  1  0
  1 32  1  6
  1 33  1  0
  1 34  1  0
  2  3  1  0
  3  4  1  0
  3 35  1  1
  3 36  1  0
  4  5  1  0
  4 37  1  6
  4 38  1  0
  5  6  1  0
  6  7  1  0
  6 11  2  0
  7  8  2  0
  7 39  1  0
  8  9  1  0
  9 10  2  0
  9 12  1  0
 10 11  1  0
 10 40  1  0
 12 13  2  0
 12 14  1  0
 14 15  1  0
 14 41  1  0
 15 16  1  0
 15 21  2  0
 16 17  2  0
 16 42  1  0
 17 18  1  0
 17 43  1  0
 18 19  1  0
 18 20  2  0
 20 21  1  0
 22 20  1  6
 21 44  1  0
 22 23  1  0
 22 24  1  0
 22 31  1  0
 23 45  1  1
 23 46  1  0
 23 47  1  0
 24 25  1  0
 24 48  1  1
 24 49  1  0
 25 26  2  0
 25 27  1  0
 27 28  1  0
 27 29  1  0
 28 50  1  6
 28 51  1  0
 28 52  1  0
 29 30  1  0
 29 31  2  0
 30 53  1  0
 30 54  1  0
 31 55  1  0
M  CHG  1  31   1
M  END
