8b
     RDKit          3D

 42 44  0  0  1  0  0  0  0  0999 V2000
  -14.7350   42.5560   94.0990 C   0  0  1  0  0  0  0  0  0  0  0  0
  -15.4180   41.2570   94.1340 N   0  0  0  0  0  0  0  0  0  0  0  0
  -15.2600   40.2590   93.2750 C   0  0  0  0  0  0  0  0  0  0  0  0
  -14.4510   40.2840   92.2720 N   0  0  0  0  0  0  0  0  0  0  0  0
  -16.0190   39.2320   93.5030 N   0  0  0  0  0  0  0  0  0  0  0  0
  -16.8380   39.4700   94.6810 C   0  0  1  0  0  0  0  0  0  0  0  0
  -16.4480   38.3960   95.7050 C   0  0  2  0  0  0  0  0  0  0  0  0
  -16.3140   40.8610   95.0980 C   0  0  0  0  0  0  0  0  0  0  0  0
  -16.5700   41.5950   96.0260 O   0  0  0  0  0  0  0  0  0  0  0  0
  -18.3250   39.5020   94.2470 C   0  0  0  0  0  0  0  0  0  0  0  0
  -18.6690   40.0960   93.0280 C   0  0  0  0  0  0  0  0  0  0  0  0
  -20.0010   40.1840   92.6160 C   0  0  0  0  0  0  0  0  0  0  0  0
  -21.0270   39.6660   93.4070 C   0  0  0  0  0  0  0  0  0  0  0  0
  -20.7100   39.0790   94.6180 C   0  0  0  0  0  0  0  0  0  0  0  0
  -19.3840   39.0080   95.0160 C   0  0  0  0  0  0  0  0  0  0  0  0
  -19.1830   38.4460   96.1970 F   0  0  0  0  0  0  0  0  0  0  0  0
  -20.2300   40.8180   91.3710 N   0  0  0  0  0  0  0  0  0  0  0  0
  -21.3530   41.4680   90.9010 C   0  0  0  0  0  0  0  0  0  0  0  0
  -22.3930   41.4540   91.5470 O   0  0  0  0  0  0  0  0  0  0  0  0
  -21.2110   42.1790   89.6320 C   0  0  0  0  0  0  0  0  0  0  0  0
  -22.2090   43.0610   89.2000 C   0  0  0  0  0  0  0  0  0  0  0  0
  -22.0680   43.7490   88.0140 C   0  0  0  0  0  0  0  0  0  0  0  0
  -20.9180   43.5340   87.2680 C   0  0  0  0  0  0  0  0  0  0  0  0
  -20.6810   44.3580   85.7650 Cl  0  0  0  0  0  0  0  0  0  0  0  0
  -19.9510   42.6460   87.7350 C   0  0  0  0  0  0  0  0  0  0  0  0
  -20.0950   41.9920   88.8800 N   0  0  0  0  0  0  0  0  0  0  0  0
  -14.8060   42.9530   93.0940 H   0  0  0  0  0  0  0  0  0  0  0  0
  -15.2250   43.2270   94.7940 H   0  0  0  0  0  0  0  0  0  0  0  0
  -13.7040   42.3980   94.3940 H   0  0  0  0  0  0  0  0  0  0  0  0
  -13.8710   41.1180   92.1190 H   0  0  0  0  0  0  0  0  0  0  0  0
  -14.3740   39.4790   91.6390 H   0  0  0  0  0  0  0  0  0  0  0  0
  -15.3610   38.3310   95.7620 H   0  0  0  0  0  0  0  0  0  0  0  0
  -16.8600   37.4370   95.3870 H   0  0  0  0  0  0  0  0  0  0  0  0
  -16.8310   38.6790   96.6850 H   0  0  0  0  0  0  0  0  0  0  0  0
  -17.9270   40.5110   92.3980 H   0  0  0  0  0  0  0  0  0  0  0  0
  -22.0360   39.7110   93.0910 H   0  0  0  0  0  0  0  0  0  0  0  0
  -21.4730   38.6840   95.2390 H   0  0  0  0  0  0  0  0  0  0  0  0
  -19.4320   40.8970   90.7200 H   0  0  0  0  0  0  0  0  0  0  0  0
  -23.0780   43.2000   89.7920 H   0  0  0  0  0  0  0  0  0  0  0  0
  -22.8130   44.4220   87.6730 H   0  0  0  0  0  0  0  0  0  0  0  0
  -19.0740   42.4820   87.1630 H   0  0  0  0  0  0  0  0  0  0  0  0
  -16.0250   38.3860   92.9220 H   0  0  0  0  0  0  0  0  0  0  0  0
  1  2  1  0
  1 27  1  6
  1 28  1  0
  1 29  1  0
  2  3  1  0
  2  8  1  0
  3  4  1  0
  3  5  2  0
  4 30  1  0
  4 31  1  0
  5  6  1  0
  5 42  1  0
  6  7  1  0
  6  8  1  0
  6 10  1  6
  7 32  1  1
  7 33  1  0
  7 34  1  0
  8  9  2  0
 10 11  2  0
 10 15  1  0
 11 12  1  0
 11 35  1  0
 12 13  2  0
 12 17  1  0
 13 14  1  0
 13 36  1  0
 14 15  2  0
 14 37  1  0
 15 16  1  0
 17 18  1  0
 17 38  1  0
 18 19  2  0
 18 20  1  0
 20 21  1  0
 20 26  2  0
 21 22  2  0
 21 39  1  0
 22 23  1  0
 22 40  1  0
 23 24  1  0
 23 25  2  0
 25 26  1  0
 25 41  1  0
M  CHG  1   5   1
M  END
