CHEMBL3402741_400
     RDKit          3D

 71 73  0  0  1  0  0  0  0  0999 V2000
   21.7318   33.7838   47.6357 C   0  0  2  0  0  0  0  0  0  0  0  0
   21.7989   32.7104   48.7372 C   0  0  1  0  0  0  0  0  0  0  0  0
   23.1639   32.3445   49.2011 N   0  0  1  0  0  0  0  0  0  0  0  0
   23.9508   31.6400   48.1573 C   0  0  1  0  0  0  0  0  0  0  0  0
   23.5042   30.1812   47.9967 C   0  0  2  0  0  0  0  0  0  0  0  0
   23.8634   33.5438   49.7280 C   0  0  1  0  0  0  0  0  0  0  0  0
   25.0098   33.1293   50.6528 C   0  0  1  0  0  0  0  0  0  0  0  0
   25.0532   34.0430   51.8761 C   0  0  1  0  0  0  0  0  0  0  0  0
   23.9078   33.9027   52.7144 O   0  0  0  0  0  0  0  0  0  0  0  0
   24.0717   33.6620   54.0455 C   0  0  0  0  0  0  0  0  0  0  0  0
   25.1417   33.8384   54.5675 O   0  0  0  0  0  0  0  0  0  0  0  0
   22.9742   33.2091   54.7468 N   0  0  0  0  0  0  0  0  0  0  0  0
   22.8943   32.8488   56.1157 C   0  0  0  0  0  0  0  0  0  0  0  0
   23.9614   32.8598   57.0129 C   0  0  0  0  0  0  0  0  0  0  0  0
   23.7575   32.4522   58.3219 C   0  0  0  0  0  0  0  0  0  0  0  0
   22.5121   32.0109   58.7287 C   0  0  0  0  0  0  0  0  0  0  0  0
   21.4571   31.9745   57.8393 C   0  0  0  0  0  0  0  0  0  0  0  0
   20.0752   31.4986   58.2955 C   0  0  1  0  0  0  0  0  0  0  0  0
   19.8193   30.0806   57.9769 N   0  0  0  0  0  0  0  0  0  0  0  0
   19.4948   29.8280   56.6752 N   0  0  0  0  0  0  0  0  0  0  0  0
   19.2407   28.6793   56.1673 C   0  0  0  0  0  0  0  0  0  0  0  0
   19.2138   27.3715   56.9815 C   0  0  2  0  0  0  0  0  0  0  0  0
   20.2032   27.3637   58.5206 S   0  0  0  0  0  0  0  0  0  0  0  0
   20.2313   29.1423   58.9414 C   0  0  0  0  0  0  0  0  0  0  0  0
   20.6895   29.4360   60.0508 O   0  0  0  0  0  0  0  0  0  0  0  0
   18.9425   28.5701   54.7214 C   0  0  0  0  0  0  0  0  0  0  0  0
   19.5244   29.4571   53.8070 C   0  0  0  0  0  0  0  0  0  0  0  0
   19.2641   29.3521   52.4439 C   0  0  0  0  0  0  0  0  0  0  0  0
   18.4099   28.3510   51.9537 C   0  0  0  0  0  0  0  0  0  0  0  0
   18.1122   28.1989   50.6095 O   0  0  0  0  0  0  0  0  0  0  0  0
   18.9227   28.8482   49.6384 C   0  0  2  0  0  0  0  0  0  0  0  0
   17.8140   27.4562   52.8544 C   0  0  0  0  0  0  0  0  0  0  0  0
   16.9786   26.4899   52.3241 O   0  0  0  0  0  0  0  0  0  0  0  0
   16.5095   25.4342   53.1567 C   0  0  2  0  0  0  0  0  0  0  0  0
   18.0898   27.5732   54.2297 C   0  0  0  0  0  0  0  0  0  0  0  0
   21.6621   32.3949   56.5362 C   0  0  0  0  0  0  0  0  0  0  0  0
   20.6905   33.9723   47.3744 H   0  0  0  0  0  0  0  0  0  0  0  0
   22.2696   33.4346   46.7542 H   0  0  0  0  0  0  0  0  0  0  0  0
   22.1877   34.7054   47.9974 H   0  0  0  0  0  0  0  0  0  0  0  0
   21.2914   33.0829   49.6302 H   0  0  0  0  0  0  0  0  0  0  0  0
   21.3367   31.7553   48.4666 H   0  0  0  0  0  0  0  0  0  0  0  0
   23.7713   32.1898   47.2327 H   0  0  0  0  0  0  0  0  0  0  0  0
   25.0024   31.7356   48.4376 H   0  0  0  0  0  0  0  0  0  0  0  0
   24.1038   29.7001   47.2239 H   0  0  0  0  0  0  0  0  0  0  0  0
   22.4527   30.1519   47.7110 H   0  0  0  0  0  0  0  0  0  0  0  0
   23.6384   29.6535   48.9410 H   0  0  0  0  0  0  0  0  0  0  0  0
   24.2565   34.0543   48.8470 H   0  0  0  0  0  0  0  0  0  0  0  0
   23.1067   34.1705   50.2073 H   0  0  0  0  0  0  0  0  0  0  0  0
   24.8713   32.0970   50.9768 H   0  0  0  0  0  0  0  0  0  0  0  0
   25.9643   33.1835   50.1268 H   0  0  0  0  0  0  0  0  0  0  0  0
   25.9678   33.8417   52.4378 H   0  0  0  0  0  0  0  0  0  0  0  0
   25.0887   35.0875   51.5675 H   0  0  0  0  0  0  0  0  0  0  0  0
   22.1344   33.1111   54.1979 H   0  0  0  0  0  0  0  0  0  0  0  0
   24.9524   33.1635   56.7152 H   0  0  0  0  0  0  0  0  0  0  0  0
   24.5748   32.4895   59.0263 H   0  0  0  0  0  0  0  0  0  0  0  0
   22.3703   31.6819   59.7456 H   0  0  0  0  0  0  0  0  0  0  0  0
   19.9316   31.7172   59.3580 H   0  0  0  0  0  0  0  0  0  0  0  0
   19.3117   32.1073   57.8084 H   0  0  0  0  0  0  0  0  0  0  0  0
   19.6154   26.5540   56.3812 H   0  0  0  0  0  0  0  0  0  0  0  0
   18.1855   27.1206   57.2474 H   0  0  0  0  0  0  0  0  0  0  0  0
   20.1890   30.2370   54.1472 H   0  0  0  0  0  0  0  0  0  0  0  0
   19.7309   30.0627   51.7800 H   0  0  0  0  0  0  0  0  0  0  0  0
   18.6192   28.5225   48.6443 H   0  0  0  0  0  0  0  0  0  0  0  0
   19.9776   28.5937   49.7610 H   0  0  0  0  0  0  0  0  0  0  0  0
   18.8031   29.9325   49.6778 H   0  0  0  0  0  0  0  0  0  0  0  0
   15.8507   25.8072   53.9405 H   0  0  0  0  0  0  0  0  0  0  0  0
   17.3436   24.8940   53.6074 H   0  0  0  0  0  0  0  0  0  0  0  0
   15.9378   24.7271   52.5555 H   0  0  0  0  0  0  0  0  0  0  0  0
   17.6305   26.8811   54.9184 H   0  0  0  0  0  0  0  0  0  0  0  0
   20.8351   32.3533   55.8422 H   0  0  0  0  0  0  0  0  0  0  0  0
   23.0289   31.6591   49.9433 H   0  0  0  0  0  0  0  0  0  0  0  0
  1  2  1  0
  1 37  1  6
  1 38  1  0
  1 39  1  0
  2  3  1  0
  2 40  1  1
  2 41  1  0
  3  4  1  0
  3  6  1  0
  3 71  1  1
  4  5  1  0
  4 42  1  6
  4 43  1  0
  5 44  1  6
  5 45  1  0
  5 46  1  0
  6  7  1  0
  6 47  1  6
  6 48  1  0
  7  8  1  0
  7 49  1  1
  7 50  1  0
  8  9  1  0
  8 51  1  1
  8 52  1  0
  9 10  1  0
 10 11  2  0
 10 12  1  0
 12 13  1  0
 12 53  1  0
 13 14  2  0
 13 36  1  0
 14 15  1  0
 14 54  1  0
 15 16  2  0
 15 55  1  0
 16 17  1  0
 16 56  1  0
 17 18  1  0
 17 36  2  0
 18 19  1  0
 18 57  1  1
 18 58  1  0
 19 20  1  0
 19 24  1  0
 20 21  2  0
 21 22  1  0
 21 26  1  0
 22 23  1  0
 22 59  1  6
 22 60  1  0
 23 24  1  0
 24 25  2  0
 26 27  2  0
 26 35  1  0
 27 28  1  0
 27 61  1  0
 28 29  2  0
 28 62  1  0
 29 30  1  0
 29 32  1  0
 30 31  1  0
 31 63  1  6
 31 64  1  0
 31 65  1  0
 32 33  1  0
 32 35  2  0
 33 34  1  0
 34 66  1  1
 34 67  1  0
 34 68  1  0
 35 69  1  0
 36 70  1  0
M  CHG  1   3   1
M  END
