CHEMBL3402756_2.7 redocked
     RDKit          3D

 61 64  0  0  1  0  0  0  0  0999 V2000
   25.3379   29.9236   47.1200 C   0  0  2  0  0  0  0  0  0  0  0  0
   23.9179   30.5300   47.1327 N   0  0  1  0  0  0  0  0  0  0  0  0
   22.9147   29.6301   47.8865 C   0  0  1  0  0  0  0  0  0  0  0  0
   23.8647   32.0031   47.6139 C   0  0  1  0  0  0  0  0  0  0  0  0
   24.5951   32.2258   48.9563 C   0  0  1  0  0  0  0  0  0  0  0  0
   24.3598   33.6330   49.5268 C   0  0  1  0  0  0  0  0  0  0  0  0
   25.1980   33.8713   50.6511 O   0  0  0  0  0  0  0  0  0  0  0  0
   24.7489   33.5622   51.9177 C   0  0  0  0  0  0  0  0  0  0  0  0
   25.4123   34.1189   53.0067 C   0  0  0  0  0  0  0  0  0  0  0  0
   25.0135   33.9569   54.2915 N   0  0  0  0  0  0  0  0  0  0  0  0
   23.9458   33.1441   54.5018 C   0  0  0  0  0  0  0  0  0  0  0  0
   23.2730   32.4981   53.5125 N   0  0  0  0  0  0  0  0  0  0  0  0
   23.6683   32.7284   52.2322 C   0  0  0  0  0  0  0  0  0  0  0  0
   23.5269   32.8988   55.9215 C   0  0  0  0  0  0  0  0  0  0  0  0
   24.4722   32.9692   56.9562 C   0  0  0  0  0  0  0  0  0  0  0  0
   24.1266   32.6909   58.2757 C   0  0  0  0  0  0  0  0  0  0  0  0
   22.8221   32.3318   58.5902 C   0  0  0  0  0  0  0  0  0  0  0  0
   21.8528   32.2615   57.5925 C   0  0  0  0  0  0  0  0  0  0  0  0
   20.4196   31.8927   57.9679 C   0  0  1  0  0  0  0  0  0  0  0  0
   20.1157   30.4603   57.8131 N   0  0  0  0  0  0  0  0  0  0  0  0
   19.6721   30.0726   56.5505 N   0  0  0  0  0  0  0  0  0  0  0  0
   19.3295   28.8541   56.2722 C   0  0  0  0  0  0  0  0  0  0  0  0
   19.4532   27.8908   57.3492 C   0  0  0  0  0  0  0  0  0  0  0  0
   19.9540   28.2437   58.5580 C   0  0  0  0  0  0  0  0  0  0  0  0
   20.3403   29.6099   58.8789 C   0  0  0  0  0  0  0  0  0  0  0  0
   20.8013   29.9247   59.9786 O   0  0  0  0  0  0  0  0  0  0  0  0
   18.8756   28.4381   54.9264 C   0  0  0  0  0  0  0  0  0  0  0  0
   18.0478   27.3201   54.7231 C   0  0  0  0  0  0  0  0  0  0  0  0
   17.6426   26.9619   53.4381 C   0  0  0  0  0  0  0  0  0  0  0  0
   16.8260   25.8994   53.2577 F   0  0  0  0  0  0  0  0  0  0  0  0
   18.0715   27.6982   52.3375 C   0  0  0  0  0  0  0  0  0  0  0  0
   18.9178   28.7875   52.5165 C   0  0  0  0  0  0  0  0  0  0  0  0
   19.3587   29.4898   51.4483 F   0  0  0  0  0  0  0  0  0  0  0  0
   19.3150   29.1524   53.8002 C   0  0  0  0  0  0  0  0  0  0  0  0
   22.2040   32.5602   56.2669 C   0  0  0  0  0  0  0  0  0  0  0  0
   25.6727   29.8056   48.1496 H   0  0  0  0  0  0  0  0  0  0  0  0
   25.9882   30.6063   46.5699 H   0  0  0  0  0  0  0  0  0  0  0  0
   25.2825   28.9560   46.6175 H   0  0  0  0  0  0  0  0  0  0  0  0
   23.1379   29.6980   48.9496 H   0  0  0  0  0  0  0  0  0  0  0  0
   21.9125   30.0088   47.6787 H   0  0  0  0  0  0  0  0  0  0  0  0
   23.0254   28.6074   47.5190 H   0  0  0  0  0  0  0  0  0  0  0  0
   24.3159   32.5872   46.8087 H   0  0  0  0  0  0  0  0  0  0  0  0
   22.8046   32.2640   47.6631 H   0  0  0  0  0  0  0  0  0  0  0  0
   24.3148   31.4739   49.6915 H   0  0  0  0  0  0  0  0  0  0  0  0
   25.6668   32.1118   48.7977 H   0  0  0  0  0  0  0  0  0  0  0  0
   24.6307   34.3761   48.7767 H   0  0  0  0  0  0  0  0  0  0  0  0
   23.3069   33.8123   49.7527 H   0  0  0  0  0  0  0  0  0  0  0  0
   26.2607   34.7662   52.8487 H   0  0  0  0  0  0  0  0  0  0  0  0
   23.0950   32.2304   51.4688 H   0  0  0  0  0  0  0  0  0  0  0  0
   25.4977   33.2293   56.7376 H   0  0  0  0  0  0  0  0  0  0  0  0
   24.8769   32.7509   59.0497 H   0  0  0  0  0  0  0  0  0  0  0  0
   22.5671   32.0970   59.6141 H   0  0  0  0  0  0  0  0  0  0  0  0
   20.2077   32.2334   58.9853 H   0  0  0  0  0  0  0  0  0  0  0  0
   19.7411   32.4830   57.3519 H   0  0  0  0  0  0  0  0  0  0  0  0
   19.1963   26.8561   57.1904 H   0  0  0  0  0  0  0  0  0  0  0  0
   20.0725   27.5035   59.3374 H   0  0  0  0  0  0  0  0  0  0  0  0
   17.6737   26.7390   55.5523 H   0  0  0  0  0  0  0  0  0  0  0  0
   17.7689   27.4095   51.3437 H   0  0  0  0  0  0  0  0  0  0  0  0
   19.9706   30.0041   53.9107 H   0  0  0  0  0  0  0  0  0  0  0  0
   21.4489   32.5029   55.4953 H   0  0  0  0  0  0  0  0  0  0  0  0
   23.6124   30.5419   46.1686 H   0  0  0  0  0  0  0  0  0  0  0  0
  1  2  1  0
  1 36  1  1
  1 37  1  0
  1 38  1  0
  2  3  1  0
  2  4  1  0
  2 61  1  6
  3 39  1  1
  3 40  1  0
  3 41  1  0
  4  5  1  0
  4 42  1  6
  4 43  1  0
  5  6  1  0
  5 44  1  1
  5 45  1  0
  6  7  1  0
  6 46  1  6
  6 47  1  0
  7  8  1  0
  8  9  2  0
  8 13  1  0
  9 10  1  0
  9 48  1  0
 10 11  2  0
 11 12  1  0
 11 14  1  0
 12 13  2  0
 13 49  1  0
 14 15  2  0
 14 35  1  0
 15 16  1  0
 15 50  1  0
 16 17  2  0
 16 51  1  0
 17 18  1  0
 17 52  1  0
 18 19  1  0
 18 35  2  0
 19 20  1  0
 19 53  1  1
 19 54  1  0
 20 21  1  0
 20 25  1  0
 21 22  2  0
 22 23  1  0
 22 27  1  0
 23 24  2  0
 23 55  1  0
 24 25  1  0
 24 56  1  0
 25 26  2  0
 27 28  2  0
 27 34  1  0
 28 29  1  0
 28 57  1  0
 29 30  1  0
 29 31  2  0
 31 32  1  0
 31 58  1  0
 32 33  1  0
 32 34  2  0
 34 59  1  0
 35 60  1  0
M  CHG  1   2   1
M  END
