CHEMBL3402760_1 redocked
     RDKit          3D

 62 65  0  0  1  0  0  0  0  0999 V2000
   25.3379   29.9236   47.1200 C   0  0  1  0  0  0  0  0  0  0  0  0
   23.9179   30.5300   47.1327 N   0  0  1  0  0  0  0  0  0  0  0  0
   22.9147   29.6301   47.8865 C   0  0  1  0  0  0  0  0  0  0  0  0
   23.8647   32.0031   47.6139 C   0  0  2  0  0  0  0  0  0  0  0  0
   24.5951   32.2258   48.9563 C   0  0  2  0  0  0  0  0  0  0  0  0
   24.3598   33.6330   49.5268 C   0  0  2  0  0  0  0  0  0  0  0  0
   25.1980   33.8713   50.6511 O   0  0  0  0  0  0  0  0  0  0  0  0
   24.7489   33.5622   51.9177 C   0  0  0  0  0  0  0  0  0  0  0  0
   25.4123   34.1189   53.0067 C   0  0  0  0  0  0  0  0  0  0  0  0
   25.0135   33.9569   54.2915 N   0  0  0  0  0  0  0  0  0  0  0  0
   23.9458   33.1441   54.5018 C   0  0  0  0  0  0  0  0  0  0  0  0
   23.2730   32.4981   53.5125 N   0  0  0  0  0  0  0  0  0  0  0  0
   23.6683   32.7284   52.2322 C   0  0  0  0  0  0  0  0  0  0  0  0
   23.5269   32.8988   55.9215 C   0  0  0  0  0  0  0  0  0  0  0  0
   24.4722   32.9692   56.9562 C   0  0  0  0  0  0  0  0  0  0  0  0
   24.1266   32.6909   58.2757 C   0  0  0  0  0  0  0  0  0  0  0  0
   22.8221   32.3318   58.5902 C   0  0  0  0  0  0  0  0  0  0  0  0
   21.8528   32.2615   57.5925 C   0  0  0  0  0  0  0  0  0  0  0  0
   20.4196   31.8927   57.9679 C   0  0  2  0  0  0  0  0  0  0  0  0
   20.1157   30.4603   57.8131 N   0  0  0  0  0  0  0  0  0  0  0  0
   19.6721   30.0726   56.5505 N   0  0  0  0  0  0  0  0  0  0  0  0
   19.3295   28.8541   56.2722 C   0  0  0  0  0  0  0  0  0  0  0  0
   19.4532   27.8908   57.3492 C   0  0  0  0  0  0  0  0  0  0  0  0
   19.9540   28.2437   58.5580 C   0  0  0  0  0  0  0  0  0  0  0  0
   20.3403   29.6099   58.8789 C   0  0  0  0  0  0  0  0  0  0  0  0
   20.8013   29.9247   59.9786 O   0  0  0  0  0  0  0  0  0  0  0  0
   18.8756   28.4381   54.9264 C   0  0  0  0  0  0  0  0  0  0  0  0
   19.3571   29.0390   53.7501 C   0  0  0  0  0  0  0  0  0  0  0  0
   18.9033   28.6172   52.5012 C   0  0  0  0  0  0  0  0  0  0  0  0
   17.9504   27.6070   52.4065 C   0  0  0  0  0  0  0  0  0  0  0  0
   17.4381   27.0239   53.5607 C   0  0  0  0  0  0  0  0  0  0  0  0
   17.8980   27.4372   54.8083 C   0  0  0  0  0  0  0  0  0  0  0  0
   16.4080   25.9379   53.4621 C   0  0  0  0  0  0  0  0  0  0  0  0
   15.6129   25.0986   53.4177 N   0  0  0  0  0  0  0  0  0  0  0  0
   22.2040   32.5602   56.2669 C   0  0  0  0  0  0  0  0  0  0  0  0
   25.2825   28.9560   46.6175 H   0  0  0  0  0  0  0  0  0  0  0  0
   25.9882   30.6063   46.5699 H   0  0  0  0  0  0  0  0  0  0  0  0
   25.6727   29.8056   48.1496 H   0  0  0  0  0  0  0  0  0  0  0  0
   23.1379   29.6980   48.9496 H   0  0  0  0  0  0  0  0  0  0  0  0
   21.9125   30.0088   47.6787 H   0  0  0  0  0  0  0  0  0  0  0  0
   23.0254   28.6074   47.5190 H   0  0  0  0  0  0  0  0  0  0  0  0
   22.8223   32.3180   47.6902 H   0  0  0  0  0  0  0  0  0  0  0  0
   24.3184   32.6386   46.8511 H   0  0  0  0  0  0  0  0  0  0  0  0
   25.6694   32.0938   48.8210 H   0  0  0  0  0  0  0  0  0  0  0  0
   24.2874   31.4834   49.6908 H   0  0  0  0  0  0  0  0  0  0  0  0
   23.3078   33.8091   49.7580 H   0  0  0  0  0  0  0  0  0  0  0  0
   24.6262   34.3754   48.7732 H   0  0  0  0  0  0  0  0  0  0  0  0
   26.2618   34.7682   52.8533 H   0  0  0  0  0  0  0  0  0  0  0  0
   23.0871   32.2310   51.4714 H   0  0  0  0  0  0  0  0  0  0  0  0
   25.4947   33.2318   56.7258 H   0  0  0  0  0  0  0  0  0  0  0  0
   24.8742   32.7434   59.0542 H   0  0  0  0  0  0  0  0  0  0  0  0
   22.5632   32.1015   59.6150 H   0  0  0  0  0  0  0  0  0  0  0  0
   19.7364   32.4734   57.3467 H   0  0  0  0  0  0  0  0  0  0  0  0
   20.2154   32.2216   58.9891 H   0  0  0  0  0  0  0  0  0  0  0  0
   19.1892   26.8596   57.1768 H   0  0  0  0  0  0  0  0  0  0  0  0
   20.0598   27.4950   59.3284 H   0  0  0  0  0  0  0  0  0  0  0  0
   20.1080   29.8142   53.7953 H   0  0  0  0  0  0  0  0  0  0  0  0
   19.2971   29.0738   51.6040 H   0  0  0  0  0  0  0  0  0  0  0  0
   17.6075   27.2821   51.4345 H   0  0  0  0  0  0  0  0  0  0  0  0
   17.4945   26.9702   55.6964 H   0  0  0  0  0  0  0  0  0  0  0  0
   21.4574   32.4969   55.4889 H   0  0  0  0  0  0  0  0  0  0  0  0
   23.6078   30.5431   46.1686 H   0  0  0  0  0  0  0  0  0  0  0  0
  1  2  1  0
  1 36  1  6
  1 37  1  0
  1 38  1  0
  2  3  1  0
  2  4  1  0
  2 62  1  6
  3 39  1  1
  3 40  1  0
  3 41  1  0
  4  5  1  0
  4 42  1  1
  4 43  1  0
  5  6  1  0
  5 44  1  6
  5 45  1  0
  6  7  1  0
  6 46  1  1
  6 47  1  0
  7  8  1  0
  8  9  2  0
  8 13  1  0
  9 10  1  0
  9 48  1  0
 10 11  2  0
 11 12  1  0
 11 14  1  0
 12 13  2  0
 13 49  1  0
 14 15  2  0
 14 35  1  0
 15 16  1  0
 15 50  1  0
 16 17  2  0
 16 51  1  0
 17 18  1  0
 17 52  1  0
 18 19  1  0
 18 35  2  0
 19 20  1  0
 19 53  1  6
 19 54  1  0
 20 21  1  0
 20 25  1  0
 21 22  2  0
 22 23  1  0
 22 27  1  0
 23 24  2  0
 23 55  1  0
 24 25  1  0
 24 56  1  0
 25 26  2  0
 27 28  2  0
 27 32  1  0
 28 29  1  0
 28 57  1  0
 29 30  2  0
 29 58  1  0
 30 31  1  0
 30 59  1  0
 31 32  2  0
 31 33  1  0
 32 60  1  0
 33 34  3  0
 35 61  1  0
M  CHG  1   2   1
M  END
