CHEMBL3402758_10 redocked
     RDKit          3D

 60 63  0  0  1  0  0  0  0  0999 V2000
   25.3379   29.9236   47.1200 C   0  0  2  0  0  0  0  0  0  0  0  0
   23.9179   30.5300   47.1327 N   0  0  1  0  0  0  0  0  0  0  0  0
   22.9147   29.6301   47.8865 C   0  0  1  0  0  0  0  0  0  0  0  0
   23.8647   32.0031   47.6139 C   0  0  1  0  0  0  0  0  0  0  0  0
   24.5951   32.2258   48.9563 C   0  0  1  0  0  0  0  0  0  0  0  0
   24.3598   33.6330   49.5268 C   0  0  1  0  0  0  0  0  0  0  0  0
   25.1980   33.8713   50.6511 O   0  0  0  0  0  0  0  0  0  0  0  0
   24.7489   33.5622   51.9177 C   0  0  0  0  0  0  0  0  0  0  0  0
   25.4123   34.1189   53.0067 C   0  0  0  0  0  0  0  0  0  0  0  0
   25.0135   33.9569   54.2915 N   0  0  0  0  0  0  0  0  0  0  0  0
   23.9458   33.1441   54.5018 C   0  0  0  0  0  0  0  0  0  0  0  0
   23.2730   32.4981   53.5125 N   0  0  0  0  0  0  0  0  0  0  0  0
   23.6683   32.7284   52.2322 C   0  0  0  0  0  0  0  0  0  0  0  0
   23.5269   32.8988   55.9215 C   0  0  0  0  0  0  0  0  0  0  0  0
   24.4722   32.9692   56.9562 C   0  0  0  0  0  0  0  0  0  0  0  0
   24.1266   32.6909   58.2757 C   0  0  0  0  0  0  0  0  0  0  0  0
   22.8221   32.3318   58.5902 C   0  0  0  0  0  0  0  0  0  0  0  0
   21.8528   32.2615   57.5925 C   0  0  0  0  0  0  0  0  0  0  0  0
   20.4196   31.8927   57.9679 C   0  0  1  0  0  0  0  0  0  0  0  0
   20.1157   30.4603   57.8131 N   0  0  0  0  0  0  0  0  0  0  0  0
   19.6721   30.0726   56.5505 N   0  0  0  0  0  0  0  0  0  0  0  0
   19.3295   28.8541   56.2722 C   0  0  0  0  0  0  0  0  0  0  0  0
   19.4532   27.8908   57.3492 C   0  0  0  0  0  0  0  0  0  0  0  0
   19.9540   28.2437   58.5580 C   0  0  0  0  0  0  0  0  0  0  0  0
   20.3403   29.6099   58.8789 C   0  0  0  0  0  0  0  0  0  0  0  0
   20.8013   29.9247   59.9786 O   0  0  0  0  0  0  0  0  0  0  0  0
   18.8763   28.4412   54.9333 C   0  0  0  0  0  0  0  0  0  0  0  0
   17.9807   27.3786   54.7439 C   0  0  0  0  0  0  0  0  0  0  0  0
   17.5609   27.0422   53.4569 C   0  0  0  0  0  0  0  0  0  0  0  0
   18.0662   27.7679   52.3794 C   0  0  0  0  0  0  0  0  0  0  0  0
   18.9601   28.7764   52.5257 N   0  0  0  0  0  0  0  0  0  0  0  0
   19.3488   29.0982   53.7853 C   0  0  0  0  0  0  0  0  0  0  0  0
   22.2040   32.5602   56.2669 C   0  0  0  0  0  0  0  0  0  0  0  0
   25.6727   29.8056   48.1496 H   0  0  0  0  0  0  0  0  0  0  0  0
   25.9882   30.6063   46.5699 H   0  0  0  0  0  0  0  0  0  0  0  0
   25.2825   28.9560   46.6175 H   0  0  0  0  0  0  0  0  0  0  0  0
   23.1379   29.6980   48.9496 H   0  0  0  0  0  0  0  0  0  0  0  0
   21.9125   30.0088   47.6787 H   0  0  0  0  0  0  0  0  0  0  0  0
   23.0254   28.6074   47.5190 H   0  0  0  0  0  0  0  0  0  0  0  0
   24.2957   32.5929   46.8023 H   0  0  0  0  0  0  0  0  0  0  0  0
   22.8055   32.2486   47.6832 H   0  0  0  0  0  0  0  0  0  0  0  0
   24.2665   31.4921   49.6918 H   0  0  0  0  0  0  0  0  0  0  0  0
   25.6704   32.0890   48.8356 H   0  0  0  0  0  0  0  0  0  0  0  0
   24.6408   34.3761   48.7791 H   0  0  0  0  0  0  0  0  0  0  0  0
   23.3065   33.8238   49.7368 H   0  0  0  0  0  0  0  0  0  0  0  0
   26.2987   34.7204   52.8893 H   0  0  0  0  0  0  0  0  0  0  0  0
   23.1252   32.2445   51.4423 H   0  0  0  0  0  0  0  0  0  0  0  0
   25.4987   33.2072   56.7284 H   0  0  0  0  0  0  0  0  0  0  0  0
   24.8771   32.7429   59.0516 H   0  0  0  0  0  0  0  0  0  0  0  0
   22.5622   32.0946   59.6075 H   0  0  0  0  0  0  0  0  0  0  0  0
   20.2024   32.2392   58.9813 H   0  0  0  0  0  0  0  0  0  0  0  0
   19.7369   32.4730   57.3446 H   0  0  0  0  0  0  0  0  0  0  0  0
   19.1856   26.8562   57.1919 H   0  0  0  0  0  0  0  0  0  0  0  0
   20.0723   27.4977   59.3321 H   0  0  0  0  0  0  0  0  0  0  0  0
   17.5775   26.8298   55.5826 H   0  0  0  0  0  0  0  0  0  0  0  0
   16.8612   26.2345   53.3005 H   0  0  0  0  0  0  0  0  0  0  0  0
   17.7770   27.5278   51.3672 H   0  0  0  0  0  0  0  0  0  0  0  0
   20.0488   29.9170   53.8614 H   0  0  0  0  0  0  0  0  0  0  0  0
   21.4502   32.4989   55.4949 H   0  0  0  0  0  0  0  0  0  0  0  0
   23.6079   30.5416   46.1701 H   0  0  0  0  0  0  0  0  0  0  0  0
  1  2  1  0
  1 34  1  1
  1 35  1  0
  1 36  1  0
  2  3  1  0
  2  4  1  0
  2 60  1  6
  3 37  1  1
  3 38  1  0
  3 39  1  0
  4  5  1  0
  4 40  1  6
  4 41  1  0
  5  6  1  0
  5 42  1  1
  5 43  1  0
  6  7  1  0
  6 44  1  6
  6 45  1  0
  7  8  1  0
  8  9  2  0
  8 13  1  0
  9 10  1  0
  9 46  1  0
 10 11  2  0
 11 12  1  0
 11 14  1  0
 12 13  2  0
 13 47  1  0
 14 15  2  0
 14 33  1  0
 15 16  1  0
 15 48  1  0
 16 17  2  0
 16 49  1  0
 17 18  1  0
 17 50  1  0
 18 19  1  0
 18 33  2  0
 19 20  1  0
 19 51  1  1
 19 52  1  0
 20 21  1  0
 20 25  1  0
 21 22  2  0
 22 23  1  0
 22 27  1  0
 23 24  2  0
 23 53  1  0
 24 25  1  0
 24 54  1  0
 25 26  2  0
 27 28  2  0
 27 32  1  0
 28 29  1  0
 28 55  1  0
 29 30  2  0
 29 56  1  0
 30 31  1  0
 30 57  1  0
 31 32  2  0
 32 58  1  0
 33 59  1  0
M  CHG  1   2   1
M  END
