CHEMBL3402757_6.5 redocked
     RDKit          3D

 61 64  0  0  1  0  0  0  0  0999 V2000
   25.3379   29.9236   47.1200 C   0  0  2  0  0  0  0  0  0  0  0  0
   23.9179   30.5300   47.1327 N   0  0  1  0  0  0  0  0  0  0  0  0
   22.9147   29.6301   47.8865 C   0  0  1  0  0  0  0  0  0  0  0  0
   23.8647   32.0031   47.6139 C   0  0  1  0  0  0  0  0  0  0  0  0
   24.5951   32.2258   48.9563 C   0  0  1  0  0  0  0  0  0  0  0  0
   24.3598   33.6330   49.5268 C   0  0  1  0  0  0  0  0  0  0  0  0
   25.1980   33.8713   50.6511 O   0  0  0  0  0  0  0  0  0  0  0  0
   24.7489   33.5622   51.9177 C   0  0  0  0  0  0  0  0  0  0  0  0
   25.4123   34.1189   53.0067 C   0  0  0  0  0  0  0  0  0  0  0  0
   25.0135   33.9569   54.2915 N   0  0  0  0  0  0  0  0  0  0  0  0
   23.9458   33.1441   54.5018 C   0  0  0  0  0  0  0  0  0  0  0  0
   23.2730   32.4981   53.5125 N   0  0  0  0  0  0  0  0  0  0  0  0
   23.6683   32.7284   52.2322 C   0  0  0  0  0  0  0  0  0  0  0  0
   23.5269   32.8988   55.9215 C   0  0  0  0  0  0  0  0  0  0  0  0
   24.4722   32.9692   56.9562 C   0  0  0  0  0  0  0  0  0  0  0  0
   24.1266   32.6909   58.2757 C   0  0  0  0  0  0  0  0  0  0  0  0
   22.8221   32.3318   58.5902 C   0  0  0  0  0  0  0  0  0  0  0  0
   21.8528   32.2615   57.5925 C   0  0  0  0  0  0  0  0  0  0  0  0
   20.4196   31.8927   57.9679 C   0  0  1  0  0  0  0  0  0  0  0  0
   20.1157   30.4603   57.8131 N   0  0  0  0  0  0  0  0  0  0  0  0
   19.6721   30.0726   56.5505 N   0  0  0  0  0  0  0  0  0  0  0  0
   19.3295   28.8541   56.2722 C   0  0  0  0  0  0  0  0  0  0  0  0
   19.4532   27.8908   57.3492 C   0  0  0  0  0  0  0  0  0  0  0  0
   19.9540   28.2437   58.5580 C   0  0  0  0  0  0  0  0  0  0  0  0
   20.3403   29.6099   58.8789 C   0  0  0  0  0  0  0  0  0  0  0  0
   20.8013   29.9247   59.9786 O   0  0  0  0  0  0  0  0  0  0  0  0
   18.8756   28.4381   54.9264 C   0  0  0  0  0  0  0  0  0  0  0  0
   19.3754   29.0221   53.7492 C   0  0  0  0  0  0  0  0  0  0  0  0
   18.9208   28.6009   52.5003 C   0  0  0  0  0  0  0  0  0  0  0  0
   17.9494   27.6085   52.4064 C   0  0  0  0  0  0  0  0  0  0  0  0
   17.4194   27.0427   53.5612 C   0  0  0  0  0  0  0  0  0  0  0  0
   16.4564   26.0971   53.4760 F   0  0  0  0  0  0  0  0  0  0  0  0
   17.8798   27.4552   54.8089 C   0  0  0  0  0  0  0  0  0  0  0  0
   22.2040   32.5602   56.2669 C   0  0  0  0  0  0  0  0  0  0  0  0
   25.2825   28.9560   46.6175 H   0  0  0  0  0  0  0  0  0  0  0  0
   25.6727   29.8056   48.1496 H   0  0  0  0  0  0  0  0  0  0  0  0
   25.9882   30.6063   46.5699 H   0  0  0  0  0  0  0  0  0  0  0  0
   21.9125   30.0088   47.6787 H   0  0  0  0  0  0  0  0  0  0  0  0
   23.0254   28.6074   47.5190 H   0  0  0  0  0  0  0  0  0  0  0  0
   23.1379   29.6980   48.9496 H   0  0  0  0  0  0  0  0  0  0  0  0
   24.3175   32.6391   46.8510 H   0  0  0  0  0  0  0  0  0  0  0  0
   22.8221   32.3171   47.6910 H   0  0  0  0  0  0  0  0  0  0  0  0
   24.2866   31.4836   49.6907 H   0  0  0  0  0  0  0  0  0  0  0  0
   25.6694   32.0934   48.8214 H   0  0  0  0  0  0  0  0  0  0  0  0
   24.6259   34.3755   48.7731 H   0  0  0  0  0  0  0  0  0  0  0  0
   23.3077   33.8088   49.7581 H   0  0  0  0  0  0  0  0  0  0  0  0
   26.2616   34.7684   52.8533 H   0  0  0  0  0  0  0  0  0  0  0  0
   23.0870   32.2311   51.4714 H   0  0  0  0  0  0  0  0  0  0  0  0
   25.4947   33.2319   56.7256 H   0  0  0  0  0  0  0  0  0  0  0  0
   24.8742   32.7437   59.0542 H   0  0  0  0  0  0  0  0  0  0  0  0
   22.5633   32.1019   59.6151 H   0  0  0  0  0  0  0  0  0  0  0  0
   20.2155   32.2218   58.9891 H   0  0  0  0  0  0  0  0  0  0  0  0
   19.7366   32.4737   57.3467 H   0  0  0  0  0  0  0  0  0  0  0  0
   19.1893   26.8593   57.1781 H   0  0  0  0  0  0  0  0  0  0  0  0
   20.0599   27.4953   59.3287 H   0  0  0  0  0  0  0  0  0  0  0  0
   20.1408   29.7838   53.7941 H   0  0  0  0  0  0  0  0  0  0  0  0
   19.3270   29.0442   51.6019 H   0  0  0  0  0  0  0  0  0  0  0  0
   17.5991   27.2832   51.4378 H   0  0  0  0  0  0  0  0  0  0  0  0
   17.4565   27.0017   55.6940 H   0  0  0  0  0  0  0  0  0  0  0  0
   21.4577   32.4978   55.4884 H   0  0  0  0  0  0  0  0  0  0  0  0
   23.6064   30.5431   46.1691 H   0  0  0  0  0  0  0  0  0  0  0  0
  1  2  1  0
  1 35  1  6
  1 36  1  0
  1 37  1  0
  2  3  1  0
  2  4  1  0
  2 61  1  6
  3 38  1  1
  3 39  1  0
  3 40  1  0
  4  5  1  0
  4 41  1  6
  4 42  1  0
  5  6  1  0
  5 43  1  1
  5 44  1  0
  6  7  1  0
  6 45  1  6
  6 46  1  0
  7  8  1  0
  8  9  2  0
  8 13  1  0
  9 10  1  0
  9 47  1  0
 10 11  2  0
 11 12  1  0
 11 14  1  0
 12 13  2  0
 13 48  1  0
 14 15  2  0
 14 34  1  0
 15 16  1  0
 15 49  1  0
 16 17  2  0
 16 50  1  0
 17 18  1  0
 17 51  1  0
 18 19  1  0
 18 34  2  0
 19 20  1  0
 19 52  1  1
 19 53  1  0
 20 21  1  0
 20 25  1  0
 21 22  2  0
 22 23  1  0
 22 27  1  0
 23 24  2  0
 23 54  1  0
 24 25  1  0
 24 55  1  0
 25 26  2  0
 27 28  2  0
 27 33  1  0
 28 29  1  0
 28 56  1  0
 29 30  2  0
 29 57  1  0
 30 31  1  0
 30 58  1  0
 31 32  1  0
 31 33  2  0
 33 59  1  0
 34 60  1  0
M  CHG  1   2   1
M  END
