CHEMBL3402764_90
     RDKit          3D

 57 59  0  0  1  0  0  0  0  0999 V2000
   21.7989   32.7104   48.7372 C   0  0  2  0  0  0  0  0  0  0  0  0
   23.1639   32.3445   49.2011 N   0  0  1  0  0  0  0  0  0  0  0  0
   23.9508   31.6400   48.1573 C   0  0  2  0  0  0  0  0  0  0  0  0
   23.8634   33.5438   49.7280 C   0  0  1  0  0  0  0  0  0  0  0  0
   25.0098   33.1293   50.6528 C   0  0  1  0  0  0  0  0  0  0  0  0
   25.0532   34.0430   51.8761 C   0  0  1  0  0  0  0  0  0  0  0  0
   23.9078   33.9027   52.7144 O   0  0  0  0  0  0  0  0  0  0  0  0
   24.0717   33.6620   54.0455 C   0  0  0  0  0  0  0  0  0  0  0  0
   25.1417   33.8384   54.5675 O   0  0  0  0  0  0  0  0  0  0  0  0
   22.9742   33.2091   54.7468 N   0  0  0  0  0  0  0  0  0  0  0  0
   22.8943   32.8488   56.1157 C   0  0  0  0  0  0  0  0  0  0  0  0
   23.9614   32.8598   57.0129 C   0  0  0  0  0  0  0  0  0  0  0  0
   23.7575   32.4522   58.3219 C   0  0  0  0  0  0  0  0  0  0  0  0
   22.5121   32.0109   58.7287 C   0  0  0  0  0  0  0  0  0  0  0  0
   21.4571   31.9745   57.8393 C   0  0  0  0  0  0  0  0  0  0  0  0
   20.0763   31.5115   58.3049 C   0  0  1  0  0  0  0  0  0  0  0  0
   19.7733   30.1028   57.9817 N   0  0  0  0  0  0  0  0  0  0  0  0
   19.2588   29.8661   56.7022 N   0  0  0  0  0  0  0  0  0  0  0  0
   18.9833   28.6763   56.2737 C   0  0  0  0  0  0  0  0  0  0  0  0
   19.2370   27.5816   57.1975 C   0  0  0  0  0  0  0  0  0  0  0  0
   19.7357   27.8003   58.4344 C   0  0  0  0  0  0  0  0  0  0  0  0
   20.0516   29.1316   58.9268 C   0  0  0  0  0  0  0  0  0  0  0  0
   20.5015   29.3134   60.0593 O   0  0  0  0  0  0  0  0  0  0  0  0
   18.4374   28.4157   54.9178 C   0  0  0  0  0  0  0  0  0  0  0  0
   17.7478   27.2300   54.6173 C   0  0  0  0  0  0  0  0  0  0  0  0
   17.2417   27.0062   53.3384 C   0  0  0  0  0  0  0  0  0  0  0  0
   17.4267   27.9626   52.3448 C   0  0  0  0  0  0  0  0  0  0  0  0
   16.9349   27.7458   51.1034 F   0  0  0  0  0  0  0  0  0  0  0  0
   18.1132   29.1412   52.6219 C   0  0  0  0  0  0  0  0  0  0  0  0
   18.6172   29.3664   53.9005 C   0  0  0  0  0  0  0  0  0  0  0  0
   21.6621   32.3949   56.5362 C   0  0  0  0  0  0  0  0  0  0  0  0
   21.2351   33.0706   49.5984 H   0  0  0  0  0  0  0  0  0  0  0  0
   21.3370   31.8086   48.3286 H   0  0  0  0  0  0  0  0  0  0  0  0
   21.9050   33.4829   47.9741 H   0  0  0  0  0  0  0  0  0  0  0  0
   24.9088   31.3534   48.5956 H   0  0  0  0  0  0  0  0  0  0  0  0
   24.0863   32.3242   47.3176 H   0  0  0  0  0  0  0  0  0  0  0  0
   23.3856   30.7547   47.8625 H   0  0  0  0  0  0  0  0  0  0  0  0
   24.2391   34.0600   48.8432 H   0  0  0  0  0  0  0  0  0  0  0  0
   23.1099   34.1611   50.2199 H   0  0  0  0  0  0  0  0  0  0  0  0
   24.8717   32.0961   50.9778 H   0  0  0  0  0  0  0  0  0  0  0  0
   25.9653   33.1730   50.1248 H   0  0  0  0  0  0  0  0  0  0  0  0
   25.9613   33.8414   52.4484 H   0  0  0  0  0  0  0  0  0  0  0  0
   25.0909   35.0879   51.5683 H   0  0  0  0  0  0  0  0  0  0  0  0
   22.1415   33.0724   54.1916 H   0  0  0  0  0  0  0  0  0  0  0  0
   24.9530   33.1619   56.7162 H   0  0  0  0  0  0  0  0  0  0  0  0
   24.5841   32.4642   59.0184 H   0  0  0  0  0  0  0  0  0  0  0  0
   22.3660   31.6891   59.7502 H   0  0  0  0  0  0  0  0  0  0  0  0
   19.9637   31.7113   59.3728 H   0  0  0  0  0  0  0  0  0  0  0  0
   19.3198   32.1468   57.8382 H   0  0  0  0  0  0  0  0  0  0  0  0
   19.0562   26.5560   56.9164 H   0  0  0  0  0  0  0  0  0  0  0  0
   19.9272   26.9632   59.0875 H   0  0  0  0  0  0  0  0  0  0  0  0
   17.5824   26.4599   55.3577 H   0  0  0  0  0  0  0  0  0  0  0  0
   16.7130   26.0909   53.1142 H   0  0  0  0  0  0  0  0  0  0  0  0
   18.2552   29.8745   51.8414 H   0  0  0  0  0  0  0  0  0  0  0  0
   19.1520   30.2856   54.0890 H   0  0  0  0  0  0  0  0  0  0  0  0
   20.8412   32.3313   55.8352 H   0  0  0  0  0  0  0  0  0  0  0  0
   23.0625   31.6831   49.9686 H   0  0  0  0  0  0  0  0  0  0  0  0
  1  2  1  0
  1 32  1  1
  1 33  1  0
  1 34  1  0
  2  3  1  0
  2  4  1  0
  2 57  1  1
  3 35  1  1
  3 36  1  0
  3 37  1  0
  4  5  1  0
  4 38  1  6
  4 39  1  0
  5  6  1  0
  5 40  1  1
  5 41  1  0
  6  7  1  0
  6 42  1  1
  6 43  1  0
  7  8  1  0
  8  9  2  0
  8 10  1  0
 10 11  1  0
 10 44  1  0
 11 12  2  0
 11 31  1  0
 12 13  1  0
 12 45  1  0
 13 14  2  0
 13 46  1  0
 14 15  1  0
 14 47  1  0
 15 16  1  0
 15 31  2  0
 16 17  1  0
 16 48  1  1
 16 49  1  0
 17 18  1  0
 17 22  1  0
 18 19  2  0
 19 20  1  0
 19 24  1  0
 20 21  2  0
 20 50  1  0
 21 22  1  0
 21 51  1  0
 22 23  2  0
 24 25  2  0
 24 30  1  0
 25 26  1  0
 25 52  1  0
 26 27  2  0
 26 53  1  0
 27 28  1  0
 27 29  1  0
 29 30  2  0
 29 54  1  0
 30 55  1  0
 31 56  1  0
M  CHG  1   2   1
M  END
