41 flip
     RDKit          3D

 33 34  0  0  1  0  0  0  0  0999 V2000
   27.3160    0.2119  -11.5679 C   0  0  1  0  0  0  0  0  0  0  0  0
   24.8220   -0.0323  -11.5026 C   0  0  0  0  0  0  0  0  0  0  0  0
   26.0361   -0.2219  -10.8310 C   0  0  0  0  0  0  0  0  0  0  0  0
   26.0397   -0.7735   -9.5325 C   0  0  0  0  0  0  0  0  0  0  0  0
   24.8104   -1.0828   -8.9203 C   0  0  0  0  0  0  0  0  0  0  0  0
   23.6135   -0.9357   -9.6149 C   0  0  0  0  0  0  0  0  0  0  0  0
   23.6068   -0.4317  -10.9153 C   0  0  0  0  0  0  0  0  0  0  0  0
   22.4766   -0.2993  -11.6901 O   0  0  0  0  0  0  0  0  0  0  0  0
   21.2357   -0.5744  -11.1818 C   0  0  0  0  0  0  0  0  0  0  0  0
   20.5693    0.3957  -10.4352 C   0  0  0  0  0  0  0  0  0  0  0  0
   19.3048    0.1158   -9.9382 C   0  0  0  0  0  0  0  0  0  0  0  0
   18.7163   -1.1146  -10.1698 C   0  0  0  0  0  0  0  0  0  0  0  0
   19.3968   -2.1038  -10.8897 C   0  0  0  0  0  0  0  0  0  0  0  0
   18.6914   -3.6567  -11.1398 Cl  0  0  0  0  0  0  0  0  0  0  0  0
   20.6478   -1.8127  -11.4078 C   0  0  0  0  0  0  0  0  0  0  0  0
   27.5365   -1.0750   -8.5540 S   0  0  1  0  0  0  0  0  0  0  0  0
   27.1819   -2.0141   -7.4668 O   0  0  0  0  0  0  0  0  0  0  0  0
   28.6395   -1.4886   -9.4342 O   0  0  0  0  0  0  0  0  0  0  0  0
   27.9537    0.5878   -7.7603 C   0  0  1  0  0  0  0  0  0  0  0  0
   27.8618    1.5770   -8.6716 F   0  0  0  0  0  0  0  0  0  0  0  0
   27.0945    0.8268   -6.7955 F   0  0  0  0  0  0  0  0  0  0  0  0
   24.7431    0.7028  -13.0772 Cl  0  0  0  0  0  0  0  0  0  0  0  0
   27.6785    1.5088  -11.1977 O   0  0  0  0  0  0  0  0  0  0  0  0
   18.6394    1.0451   -9.2148 F   0  0  0  0  0  0  0  0  0  0  0  0
   28.1256   -0.4939  -11.4275 H   0  0  0  0  0  0  0  0  0  0  0  0
   27.1998    0.1919  -12.6248 H   0  0  0  0  0  0  0  0  0  0  0  0
   24.7747   -1.4609   -7.9094 H   0  0  0  0  0  0  0  0  0  0  0  0
   22.6917   -1.2340   -9.1288 H   0  0  0  0  0  0  0  0  0  0  0  0
   21.0184    1.3642  -10.2649 H   0  0  0  0  0  0  0  0  0  0  0  0
   17.7258   -1.2957   -9.8153 H   0  0  0  0  0  0  0  0  0  0  0  0
   21.1423   -2.5634  -12.0103 H   0  0  0  0  0  0  0  0  0  0  0  0
   28.9741    0.5773   -7.4253 H   0  0  0  0  0  0  0  0  0  0  0  0
   28.4604    1.8112  -11.7624 H   0  0  0  0  0  0  0  0  0  0  0  0
  1  3  1  0
  1 23  1  0
  1 25  1  6
  1 26  1  0
  2  3  2  0
  2  7  1  0
  2 22  1  0
  3  4  1  0
  4  5  2  0
 16  4  1  6
  5  6  1  0
  5 27  1  0
  6  7  2  0
  6 28  1  0
  7  8  1  0
  8  9  1  0
  9 10  2  0
  9 15  1  0
 10 11  1  0
 10 29  1  0
 11 12  2  0
 11 24  1  0
 12 13  1  0
 12 30  1  0
 13 14  1  0
 13 15  2  0
 15 31  1  0
 16 17  2  0
 16 18  2  0
 16 19  1  0
 19 20  1  0
 19 21  1  0
 19 32  1  1
 23 33  1  0
M  END
