50 flip
     RDKit          3D

 33 34  0  0  1  0  0  0  0  0999 V2000
   27.3390    0.1920  -11.4897 C   0  0  2  0  0  0  0  0  0  0  0  0
   24.8115   -0.0320  -11.4904 C   0  0  0  0  0  0  0  0  0  0  0  0
   26.0318   -0.2159  -10.8097 C   0  0  0  0  0  0  0  0  0  0  0  0
   26.0227   -0.7765   -9.5149 C   0  0  0  0  0  0  0  0  0  0  0  0
   24.7999   -1.0827   -8.9074 C   0  0  0  0  0  0  0  0  0  0  0  0
   23.6041   -0.9361   -9.6042 C   0  0  0  0  0  0  0  0  0  0  0  0
   23.6047   -0.4331  -10.9129 C   0  0  0  0  0  0  0  0  0  0  0  0
   22.4696   -0.3076  -11.6887 O   0  0  0  0  0  0  0  0  0  0  0  0
   21.2371   -0.5820  -11.1896 C   0  0  0  0  0  0  0  0  0  0  0  0
   20.5510    0.3918  -10.4716 C   0  0  0  0  0  0  0  0  0  0  0  0
   19.2798    0.1090   -9.9876 C   0  0  0  0  0  0  0  0  0  0  0  0
   18.7136   -1.1435  -10.2085 C   0  0  0  0  0  0  0  0  0  0  0  0
   19.4158   -2.1286  -10.8951 C   0  0  0  0  0  0  0  0  0  0  0  0
   18.7333   -3.6958  -11.1310 Cl  0  0  0  0  0  0  0  0  0  0  0  0
   20.6756   -1.8391  -11.3979 C   0  0  0  0  0  0  0  0  0  0  0  0
   27.5371   -1.0872   -8.5685 S   0  0  2  0  0  0  0  0  0  0  0  0
   27.2050   -2.0060   -7.4766 O   0  0  0  0  0  0  0  0  0  0  0  0
   27.9344    0.6067   -7.8551 C   0  0  2  0  0  0  0  0  0  0  0  0
   24.7666    0.6009  -12.8075 C   0  0  0  0  0  0  0  0  0  0  0  0
   24.7316    1.1052  -13.8442 N   0  0  0  0  0  0  0  0  0  0  0  0
   18.5961    1.0411   -9.2977 F   0  0  0  0  0  0  0  0  0  0  0  0
   28.6335   -1.4776   -9.4489 O   0  0  0  0  0  0  0  0  0  0  0  0
   28.1506   -0.4789  -11.3067 H   0  0  0  0  0  0  0  0  0  0  0  0
   27.6428    1.1924  -11.1938 H   0  0  0  0  0  0  0  0  0  0  0  0
   27.3039    0.1099  -12.5710 H   0  0  0  0  0  0  0  0  0  0  0  0
   24.7642   -1.4526   -7.8916 H   0  0  0  0  0  0  0  0  0  0  0  0
   22.6854   -1.2290   -9.1184 H   0  0  0  0  0  0  0  0  0  0  0  0
   20.9939    1.3628  -10.3090 H   0  0  0  0  0  0  0  0  0  0  0  0
   17.7230   -1.3379   -9.8577 H   0  0  0  0  0  0  0  0  0  0  0  0
   21.1985   -2.5866  -11.9689 H   0  0  0  0  0  0  0  0  0  0  0  0
   28.8630    0.5151   -7.3041 H   0  0  0  0  0  0  0  0  0  0  0  0
   27.1256    0.9197   -7.1987 H   0  0  0  0  0  0  0  0  0  0  0  0
   28.0617    1.3257   -8.6644 H   0  0  0  0  0  0  0  0  0  0  0  0
  1  3  1  0
  1 23  1  1
  1 24  1  0
  1 25  1  0
  2  3  2  0
  2  7  1  0
  2 19  1  0
  3  4  1  0
  4  5  2  0
 16  4  1  6
  5  6  1  0
  5 26  1  0
  6  7  2  0
  6 27  1  0
  7  8  1  0
  8  9  1  0
  9 10  2  0
  9 15  1  0
 10 11  1  0
 10 28  1  0
 11 12  2  0
 11 21  1  0
 12 13  1  0
 12 29  1  0
 13 14  1  0
 13 15  2  0
 15 30  1  0
 16 17  2  0
 16 18  1  0
 16 22  2  0
 18 31  1  1
 18 32  1  0
 18 33  1  0
 19 20  3  0
M  END
