13
     RDKit          3D

100104  0  0  1  0  0  0  0  0999 V2000
   14.3070   22.9110    5.6430 C   0  0  1  0  0  0  0  0  0  0  0  0
   14.5790   21.3770    5.3860 C   0  0  0  0  0  0  0  0  0  0  0  0
   13.6330   20.5620    5.4030 O   0  0  0  0  0  0  0  0  0  0  0  0
   15.8330   20.9260    5.1890 N   0  0  0  0  0  0  0  0  0  0  0  0
   16.1290   19.4960    4.9900 C   0  0  1  0  0  0  0  0  0  0  0  0
   16.0890   18.9950    3.5740 C   0  0  0  0  0  0  0  0  0  0  0  0
   15.2500   19.4110    2.4890 C   0  0  0  0  0  0  0  0  0  0  0  0
   15.4250   18.7590    1.2180 C   0  0  0  0  0  0  0  0  0  0  0  0
   16.4120   17.7250    1.0620 C   0  0  0  0  0  0  0  0  0  0  0  0
   17.2390   17.3220    2.1630 C   0  0  0  0  0  0  0  0  0  0  0  0
   17.0540   17.9780    3.4120 C   0  0  0  0  0  0  0  0  0  0  0  0
   17.7990   17.7320    4.7040 C   0  0  1  0  0  0  0  0  0  0  0  0
   17.5230   19.0220    5.5170 C   0  0  1  0  0  0  0  0  0  0  0  0
   18.5730   19.9140    5.1680 O   0  0  0  0  0  0  0  0  0  0  0  0
   14.1110   23.1820    7.1760 C   0  0  1  0  0  0  0  0  0  0  0  0
   14.9730   22.3470    8.1180 C   0  0  0  0  0  0  0  0  0  0  0  0
   16.3810   22.6040    8.2360 C   0  0  0  0  0  0  0  0  0  0  0  0
   17.1780   21.7980    9.1060 C   0  0  0  0  0  0  0  0  0  0  0  0
   16.5770   20.7350    9.8590 C   0  0  0  0  0  0  0  0  0  0  0  0
   15.1730   20.4770    9.7450 C   0  0  0  0  0  0  0  0  0  0  0  0
   14.3750   21.2800    8.8770 C   0  0  0  0  0  0  0  0  0  0  0  0
   15.4120   23.7170    5.2220 O   0  0  0  0  0  0  0  0  0  0  0  0
   13.0310   22.9480    4.7450 C   0  0  1  0  0  0  0  0  0  0  0  0
   12.0780   23.9550    4.3850 N   0  0  0  0  0  0  0  0  0  0  0  0
   11.4140   24.7110    5.3210 N   0  0  0  0  0  0  0  0  0  0  0  0
   11.5480   23.4280    3.1080 C   0  0  1  0  0  0  0  0  0  0  0  0
   10.5400   24.4360    6.3090 C   0  0  0  0  0  0  0  0  0  0  0  0
   10.3620   23.2950    6.7660 O   0  0  0  0  0  0  0  0  0  0  0  0
    9.7620   25.6600    6.8290 C   0  0  2  0  0  0  0  0  0  0  0  0
    9.6900   25.9050    8.3760 C   0  0  2  0  0  0  0  0  0  0  0  0
    8.9260   27.2100    8.7310 C   0  0  1  0  0  0  0  0  0  0  0  0
   11.0770   26.0020    9.0310 C   0  0  1  0  0  0  0  0  0  0  0  0
    8.3920   25.5860    6.2930 N   0  0  0  0  0  0  0  0  0  0  0  0
    7.8210   26.4840    5.4740 C   0  0  0  0  0  0  0  0  0  0  0  0
    8.4670   27.4840    5.1070 O   0  0  0  0  0  0  0  0  0  0  0  0
    6.5440   26.2540    5.0890 O   0  0  0  0  0  0  0  0  0  0  0  0
   10.0340   23.4700    2.9970 C   0  0  0  0  0  0  0  0  0  0  0  0
    9.4220   24.4510    2.1580 C   0  0  0  0  0  0  0  0  0  0  0  0
    7.9990   24.5180    2.0510 C   0  0  0  0  0  0  0  0  0  0  0  0
    7.1660   23.6030    2.7910 C   0  0  0  0  0  0  0  0  0  0  0  0
    9.2150   22.5500    3.7300 C   0  0  0  0  0  0  0  0  0  0  0  0
    7.7910   22.6170    3.6320 C   0  0  0  0  0  0  0  0  0  0  0  0
    5.8550   27.1580    4.2320 C   0  0  1  0  0  0  0  0  0  0  0  0
    8.9130   24.7670    9.0460 C   0  0  1  0  0  0  0  0  0  0  0  0
    5.6714   23.6760    2.6869 C   0  0  0  0  0  0  0  0  0  0  0  0
    4.8974   23.6077    3.7794 C   0  0  0  0  0  0  0  0  0  0  0  0
    3.4028   23.6808    3.6753 C   0  0  0  0  0  0  0  0  0  0  0  0
    2.6119   22.7922    4.3941 C   0  0  0  0  0  0  0  0  0  0  0  0
    1.2270   22.8599    4.2976 C   0  0  0  0  0  0  0  0  0  0  0  0
    0.6331   23.8161    3.4824 C   0  0  0  0  0  0  0  0  0  0  0  0
    1.4240   24.7046    2.7636 C   0  0  0  0  0  0  0  0  0  0  0  0
    2.8088   24.6369    2.8601 C   0  0  0  0  0  0  0  0  0  0  0  0
   16.5979   21.5858    5.1833 H   0  0  0  0  0  0  0  0  0  0  0  0
   15.3915   18.8969    5.5286 H   0  0  0  0  0  0  0  0  0  0  0  0
   14.5100   20.1857    2.6257 H   0  0  0  0  0  0  0  0  0  0  0  0
   14.8092   19.0479    0.3789 H   0  0  0  0  0  0  0  0  0  0  0  0
   16.5314   17.2446    0.1020 H   0  0  0  0  0  0  0  0  0  0  0  0
   17.9801   16.5453    2.0439 H   0  0  0  0  0  0  0  0  0  0  0  0
   17.3571   16.8637    5.1942 H   0  0  0  0  0  0  0  0  0  0  0  0
   18.8574   17.5297    4.5375 H   0  0  0  0  0  0  0  0  0  0  0  0
   17.5332   18.8603    6.5960 H   0  0  0  0  0  0  0  0  0  0  0  0
   18.3959   20.7798    5.5430 H   0  0  0  0  0  0  0  0  0  0  0  0
   14.2553   24.2376    7.4047 H   0  0  0  0  0  0  0  0  0  0  0  0
   13.0681   22.9796    7.4239 H   0  0  0  0  0  0  0  0  0  0  0  0
   16.8400   23.3958    7.6612 H   0  0  0  0  0  0  0  0  0  0  0  0
   18.2377   21.9885    9.1927 H   0  0  0  0  0  0  0  0  0  0  0  0
   17.1842   20.1289   10.5153 H   0  0  0  0  0  0  0  0  0  0  0  0
   14.7179   19.6763   10.3095 H   0  0  0  0  0  0  0  0  0  0  0  0
   13.3178   21.0730    8.7836 H   0  0  0  0  0  0  0  0  0  0  0  0
   15.2169   24.6417    5.3908 H   0  0  0  0  0  0  0  0  0  0  0  0
   13.4596   22.5947    3.7992 H   0  0  0  0  0  0  0  0  0  0  0  0
   12.3081   22.2208    5.1202 H   0  0  0  0  0  0  0  0  0  0  0  0
   11.4049   25.6942    5.0924 H   0  0  0  0  0  0  0  0  0  0  0  0
   11.9978   23.9842    2.2844 H   0  0  0  0  0  0  0  0  0  0  0  0
   11.7708   22.3732    2.9239 H   0  0  0  0  0  0  0  0  0  0  0  0
   10.2659   26.5389    6.4227 H   0  0  0  0  0  0  0  0  0  0  0  0
    9.4318   28.0625    8.2777 H   0  0  0  0  0  0  0  0  0  0  0  0
    7.9061   27.1493    8.3513 H   0  0  0  0  0  0  0  0  0  0  0  0
    8.9032   27.3353    9.8135 H   0  0  0  0  0  0  0  0  0  0  0  0
   10.9627   26.1719   10.1016 H   0  0  0  0  0  0  0  0  0  0  0  0
   11.6225   25.0726    8.8673 H   0  0  0  0  0  0  0  0  0  0  0  0
   11.6308   26.8304    8.5893 H   0  0  0  0  0  0  0  0  0  0  0  0
    7.8597   24.7517    6.4845 H   0  0  0  0  0  0  0  0  0  0  0  0
   10.0318   25.1503    1.6047 H   0  0  0  0  0  0  0  0  0  0  0  0
    7.5441   25.2635    1.4154 H   0  0  0  0  0  0  0  0  0  0  0  0
    9.6763   21.8172    4.3781 H   0  0  0  0  0  0  0  0  0  0  0  0
    7.1848   21.9238    4.1967 H   0  0  0  0  0  0  0  0  0  0  0  0
    4.8467   26.7874    4.0474 H   0  0  0  0  0  0  0  0  0  0  0  0
    5.8002   28.1382    4.7056 H   0  0  0  0  0  0  0  0  0  0  0  0
    6.3898   27.2416    3.2859 H   0  0  0  0  0  0  0  0  0  0  0  0
    7.9022   24.7283    8.6401 H   0  0  0  0  0  0  0  0  0  0  0  0
    9.4174   23.8199    8.8544 H   0  0  0  0  0  0  0  0  0  0  0  0
    8.8659   24.9421   10.1208 H   0  0  0  0  0  0  0  0  0  0  0  0
    5.2390   23.7855    1.7030 H   0  0  0  0  0  0  0  0  0  0  0  0
    5.3297   23.4983    4.7633 H   0  0  0  0  0  0  0  0  0  0  0  0
    3.0743   22.0478    5.0288 H   0  0  0  0  0  0  0  0  0  0  0  0
    0.6113   22.1682    4.8572 H   0  0  0  0  0  0  0  0  0  0  0  0
   -0.4450   23.8688    3.4073 H   0  0  0  0  0  0  0  0  0  0  0  0
    0.9616   25.4491    2.1289 H   0  0  0  0  0  0  0  0  0  0  0  0
    3.4246   25.3287    2.3005 H   0  0  0  0  0  0  0  0  0  0  0  0
  1  2  1  0
  1 15  1  0
  1 22  1  6
  1 23  1  0
  2  3  2  0
  2  4  1  0
  4  5  1  0
  4 53  1  0
  5  6  1  0
  5 13  1  0
  5 54  1  1
  6  7  2  0
  6 11  1  0
  7  8  1  0
  7 55  1  0
  8  9  2  0
  8 56  1  0
  9 10  1  0
  9 57  1  0
 10 11  2  0
 10 58  1  0
 11 12  1  0
 12 13  1  0
 12 59  1  1
 12 60  1  0
 13 14  1  0
 13 61  1  1
 14 62  1  0
 15 16  1  0
 15 63  1  6
 15 64  1  0
 16 17  2  0
 16 21  1  0
 17 18  1  0
 17 65  1  0
 18 19  2  0
 18 66  1  0
 19 20  1  0
 19 67  1  0
 20 21  2  0
 20 68  1  0
 21 69  1  0
 22 70  1  0
 23 24  1  0
 23 71  1  6
 23 72  1  0
 24 25  1  0
 24 26  1  0
 25 27  1  0
 25 73  1  0
 26 37  1  0
 26 74  1  6
 26 75  1  0
 27 28  2  0
 27 29  1  0
 30 29  1  6
 29 33  1  0
 29 76  1  6
 30 31  1  0
 30 32  1  0
 30 44  1  0
 31 77  1  6
 31 78  1  0
 31 79  1  0
 32 80  1  1
 32 81  1  0
 32 82  1  0
 33 34  1  0
 33 83  1  0
 34 35  2  0
 34 36  1  0
 36 43  1  0
 37 38  2  0
 37 41  1  0
 38 39  1  0
 38 84  1  0
 39 40  2  0
 39 85  1  0
 40 42  1  0
 40 45  1  0
 41 42  2  0
 41 86  1  0
 42 87  1  0
 43 88  1  6
 43 89  1  0
 43 90  1  0
 44 91  1  6
 44 92  1  0
 44 93  1  0
 45 46  2  0
 45 94  1  0
 46 47  1  0
 46 95  1  0
 47 52  2  0
 47 48  1  0
 48 49  2  0
 48 96  1  0
 49 50  1  0
 49 97  1  0
 50 51  2  0
 50 98  1  0
 51 52  1  0
 51 99  1  0
 52100  1  0
M  END
