14
     RDKit          3D

 98102  0  0  1  0  0  0  0  0999 V2000
   14.3070   22.9110    5.6430 C   0  0  1  0  0  0  0  0  0  0  0  0
   14.5790   21.3770    5.3860 C   0  0  0  0  0  0  0  0  0  0  0  0
   13.6330   20.5620    5.4030 O   0  0  0  0  0  0  0  0  0  0  0  0
   15.8330   20.9260    5.1890 N   0  0  0  0  0  0  0  0  0  0  0  0
   16.1290   19.4960    4.9900 C   0  0  1  0  0  0  0  0  0  0  0  0
   16.0890   18.9950    3.5740 C   0  0  0  0  0  0  0  0  0  0  0  0
   15.2500   19.4110    2.4890 C   0  0  0  0  0  0  0  0  0  0  0  0
   15.4250   18.7590    1.2180 C   0  0  0  0  0  0  0  0  0  0  0  0
   16.4120   17.7250    1.0620 C   0  0  0  0  0  0  0  0  0  0  0  0
   17.2390   17.3220    2.1630 C   0  0  0  0  0  0  0  0  0  0  0  0
   17.0540   17.9780    3.4120 C   0  0  0  0  0  0  0  0  0  0  0  0
   17.7990   17.7320    4.7040 C   0  0  1  0  0  0  0  0  0  0  0  0
   17.5230   19.0220    5.5170 C   0  0  1  0  0  0  0  0  0  0  0  0
   18.5730   19.9140    5.1680 O   0  0  0  0  0  0  0  0  0  0  0  0
   14.1110   23.1820    7.1760 C   0  0  1  0  0  0  0  0  0  0  0  0
   14.9730   22.3470    8.1180 C   0  0  0  0  0  0  0  0  0  0  0  0
   16.3810   22.6040    8.2360 C   0  0  0  0  0  0  0  0  0  0  0  0
   17.1780   21.7980    9.1060 C   0  0  0  0  0  0  0  0  0  0  0  0
   16.5770   20.7350    9.8590 C   0  0  0  0  0  0  0  0  0  0  0  0
   15.1730   20.4770    9.7450 C   0  0  0  0  0  0  0  0  0  0  0  0
   14.3750   21.2800    8.8770 C   0  0  0  0  0  0  0  0  0  0  0  0
   15.4120   23.7170    5.2220 O   0  0  0  0  0  0  0  0  0  0  0  0
   13.0310   22.9480    4.7450 C   0  0  1  0  0  0  0  0  0  0  0  0
   12.0780   23.9550    4.3850 N   0  0  0  0  0  0  0  0  0  0  0  0
   11.4140   24.7110    5.3210 N   0  0  0  0  0  0  0  0  0  0  0  0
   11.5480   23.4280    3.1080 C   0  0  1  0  0  0  0  0  0  0  0  0
   10.5400   24.4360    6.3090 C   0  0  0  0  0  0  0  0  0  0  0  0
   10.3620   23.2950    6.7660 O   0  0  0  0  0  0  0  0  0  0  0  0
    9.7620   25.6600    6.8290 C   0  0  2  0  0  0  0  0  0  0  0  0
    9.6900   25.9050    8.3760 C   0  0  1  0  0  0  0  0  0  0  0  0
    8.9260   27.2100    8.7310 C   0  0  1  0  0  0  0  0  0  0  0  0
    8.9130   24.7670    9.0460 C   0  0  1  0  0  0  0  0  0  0  0  0
    8.3920   25.5860    6.2930 N   0  0  0  0  0  0  0  0  0  0  0  0
    7.8210   26.4840    5.4740 C   0  0  0  0  0  0  0  0  0  0  0  0
    8.4670   27.4840    5.1070 O   0  0  0  0  0  0  0  0  0  0  0  0
    6.5440   26.2540    5.0890 O   0  0  0  0  0  0  0  0  0  0  0  0
   10.0340   23.4700    2.9970 C   0  0  0  0  0  0  0  0  0  0  0  0
    9.4220   24.4510    2.1580 C   0  0  0  0  0  0  0  0  0  0  0  0
    7.9990   24.5180    2.0510 C   0  0  0  0  0  0  0  0  0  0  0  0
    7.1660   23.6030    2.7910 C   0  0  0  0  0  0  0  0  0  0  0  0
    9.2150   22.5500    3.7300 C   0  0  0  0  0  0  0  0  0  0  0  0
    7.7910   22.6170    3.6320 C   0  0  0  0  0  0  0  0  0  0  0  0
    5.8550   27.1580    4.2320 C   0  0  1  0  0  0  0  0  0  0  0  0
   11.0770   26.0020    9.0310 C   0  0  1  0  0  0  0  0  0  0  0  0
    5.6714   23.6768    2.6876 C   0  0  0  0  0  0  0  0  0  0  0  0
    4.4545   23.7374    2.6064 C   0  0  0  0  0  0  0  0  0  0  0  0
    2.9594   23.8098    2.5101 C   0  0  0  0  0  0  0  0  0  0  0  0
    2.1703   23.2050    3.4813 C   0  0  0  0  0  0  0  0  0  0  0  0
    0.7850   23.2721    3.3920 C   0  0  0  0  0  0  0  0  0  0  0  0
    0.1887   23.9440    2.3315 C   0  0  0  0  0  0  0  0  0  0  0  0
    0.9777   24.5488    1.3603 C   0  0  0  0  0  0  0  0  0  0  0  0
    2.3631   24.4818    1.4496 C   0  0  0  0  0  0  0  0  0  0  0  0
   16.6043   21.5730    5.1810 H   0  0  0  0  0  0  0  0  0  0  0  0
   15.3918   18.8964    5.5295 H   0  0  0  0  0  0  0  0  0  0  0  0
   14.5062   20.1829    2.6244 H   0  0  0  0  0  0  0  0  0  0  0  0
   14.8071   19.0456    0.3793 H   0  0  0  0  0  0  0  0  0  0  0  0
   16.5294   17.2425    0.1025 H   0  0  0  0  0  0  0  0  0  0  0  0
   17.9782   16.5428    2.0445 H   0  0  0  0  0  0  0  0  0  0  0  0
   17.3594   16.8638    5.1967 H   0  0  0  0  0  0  0  0  0  0  0  0
   18.8600   17.5325    4.5463 H   0  0  0  0  0  0  0  0  0  0  0  0
   17.5366   18.8605    6.5961 H   0  0  0  0  0  0  0  0  0  0  0  0
   18.3959   20.7798    5.5430 H   0  0  0  0  0  0  0  0  0  0  0  0
   14.2490   24.2402    7.3996 H   0  0  0  0  0  0  0  0  0  0  0  0
   13.0676   22.9792    7.4222 H   0  0  0  0  0  0  0  0  0  0  0  0
   16.8465   23.4100    7.6891 H   0  0  0  0  0  0  0  0  0  0  0  0
   18.2373   21.9900    9.1996 H   0  0  0  0  0  0  0  0  0  0  0  0
   17.1843   20.1292   10.5159 H   0  0  0  0  0  0  0  0  0  0  0  0
   14.7181   19.6766   10.3104 H   0  0  0  0  0  0  0  0  0  0  0  0
   13.3172   21.0737    8.7853 H   0  0  0  0  0  0  0  0  0  0  0  0
   15.2169   24.6417    5.3908 H   0  0  0  0  0  0  0  0  0  0  0  0
   13.4621   22.6005    3.7986 H   0  0  0  0  0  0  0  0  0  0  0  0
   12.3077   22.2197    5.1168 H   0  0  0  0  0  0  0  0  0  0  0  0
   11.4310   25.6967    5.1048 H   0  0  0  0  0  0  0  0  0  0  0  0
   11.9973   23.9865    2.2859 H   0  0  0  0  0  0  0  0  0  0  0  0
   11.7730   22.3741    2.9225 H   0  0  0  0  0  0  0  0  0  0  0  0
   10.2663   26.5386    6.4223 H   0  0  0  0  0  0  0  0  0  0  0  0
    7.9061   27.1493    8.3513 H   0  0  0  0  0  0  0  0  0  0  0  0
    8.9032   27.3353    9.8135 H   0  0  0  0  0  0  0  0  0  0  0  0
    9.4318   28.0625    8.2777 H   0  0  0  0  0  0  0  0  0  0  0  0
    8.8659   24.9421   10.1208 H   0  0  0  0  0  0  0  0  0  0  0  0
    7.9022   24.7283    8.6401 H   0  0  0  0  0  0  0  0  0  0  0  0
    9.4174   23.8199    8.8544 H   0  0  0  0  0  0  0  0  0  0  0  0
    7.8581   24.7532    6.4858 H   0  0  0  0  0  0  0  0  0  0  0  0
   10.0322   25.1512    1.6062 H   0  0  0  0  0  0  0  0  0  0  0  0
    7.5445   25.2643    1.4161 H   0  0  0  0  0  0  0  0  0  0  0  0
    9.6765   21.8182    4.3789 H   0  0  0  0  0  0  0  0  0  0  0  0
    7.1841   21.9248    4.1973 H   0  0  0  0  0  0  0  0  0  0  0  0
    4.8467   26.7874    4.0474 H   0  0  0  0  0  0  0  0  0  0  0  0
    5.8002   28.1382    4.7056 H   0  0  0  0  0  0  0  0  0  0  0  0
    6.3898   27.2416    3.2859 H   0  0  0  0  0  0  0  0  0  0  0  0
   10.9627   26.1719   10.1016 H   0  0  0  0  0  0  0  0  0  0  0  0
   11.6225   25.0726    8.8673 H   0  0  0  0  0  0  0  0  0  0  0  0
   11.6308   26.8304    8.5893 H   0  0  0  0  0  0  0  0  0  0  0  0
    2.6346   22.6819    4.3069 H   0  0  0  0  0  0  0  0  0  0  0  0
    0.1707   22.8012    4.1481 H   0  0  0  0  0  0  0  0  0  0  0  0
   -0.8899   23.9962    2.2620 H   0  0  0  0  0  0  0  0  0  0  0  0
    0.5135   25.0720    0.5347 H   0  0  0  0  0  0  0  0  0  0  0  0
    2.9774   24.9526    0.6935 H   0  0  0  0  0  0  0  0  0  0  0  0
  1  2  1  0
  1 15  1  0
  1 22  1  6
  1 23  1  0
  2  3  2  0
  2  4  1  0
  4  5  1  0
  4 53  1  0
  5  6  1  0
  5 13  1  0
  5 54  1  1
  6  7  2  0
  6 11  1  0
  7  8  1  0
  7 55  1  0
  8  9  2  0
  8 56  1  0
  9 10  1  0
  9 57  1  0
 10 11  2  0
 10 58  1  0
 11 12  1  0
 12 13  1  0
 12 59  1  1
 12 60  1  0
 13 14  1  0
 13 61  1  1
 14 62  1  0
 15 16  1  0
 15 63  1  6
 15 64  1  0
 16 17  2  0
 16 21  1  0
 17 18  1  0
 17 65  1  0
 18 19  2  0
 18 66  1  0
 19 20  1  0
 19 67  1  0
 20 21  2  0
 20 68  1  0
 21 69  1  0
 22 70  1  0
 23 24  1  0
 23 71  1  6
 23 72  1  0
 24 25  1  0
 24 26  1  0
 25 27  1  0
 25 73  1  0
 26 37  1  0
 26 74  1  6
 26 75  1  0
 27 28  2  0
 27 29  1  0
 30 29  1  6
 29 33  1  0
 29 76  1  6
 30 31  1  0
 30 32  1  0
 30 44  1  0
 31 77  1  6
 31 78  1  0
 31 79  1  0
 32 80  1  1
 32 81  1  0
 32 82  1  0
 33 34  1  0
 33 83  1  0
 34 35  2  0
 34 36  1  0
 36 43  1  0
 37 38  2  0
 37 41  1  0
 38 39  1  0
 38 84  1  0
 39 40  2  0
 39 85  1  0
 40 42  1  0
 40 45  1  0
 41 42  2  0
 41 86  1  0
 42 87  1  0
 43 88  1  6
 43 89  1  0
 43 90  1  0
 44 91  1  1
 44 92  1  0
 44 93  1  0
 45 46  3  0
 46 47  1  0
 47 52  2  0
 47 48  1  0
 48 49  2  0
 48 94  1  0
 49 50  1  0
 49 95  1  0
 50 51  2  0
 50 96  1  0
 51 52  1  0
 51 97  1  0
 52 98  1  0
M  END
