2u
     RDKit          3D

 64 68  0  0  1  0  0  0  0  0999 V2000
   26.9694    8.9298   30.3559 C   0  0  2  0  0  0  0  0  0  0  0  0
   28.3131    9.5777   30.7364 C   0  0  2  0  0  0  0  0  0  0  0  0
   28.4743    8.2471   32.7368 C   0  0  2  0  0  0  0  0  0  0  0  0
   27.1330    7.5525   32.4434 C   0  0  2  0  0  0  0  0  0  0  0  0
   15.9294   10.6064   31.6561 C   0  0  0  0  0  0  0  0  0  0  0  0
   29.0914    8.6648   31.5156 O   0  0  0  0  0  0  0  0  0  0  0  0
   21.3330   12.5360   31.2560 C   0  0  0  0  0  0  0  0  0  0  0  0
   17.2154   11.1341   31.7491 C   0  0  0  0  0  0  0  0  0  0  0  0
   23.8140    8.4300   31.0230 C   0  0  0  0  0  0  0  0  0  0  0  0
   26.2279    8.4761   31.6203 C   0  0  2  0  0  0  0  0  0  0  0  0
   21.4260    9.7450   30.7760 C   0  0  0  0  0  0  0  0  0  0  0  0
   20.2000   10.4070   30.6460 C   0  0  0  0  0  0  0  0  0  0  0  0
   15.1503   10.8625   30.5316 C   0  0  0  0  0  0  0  0  0  0  0  0
   15.6441   11.6673   29.5096 C   0  0  0  0  0  0  0  0  0  0  0  0
   16.9256   12.2094   29.6017 C   0  0  0  0  0  0  0  0  0  0  0  0
   22.5820   10.4440   31.1400 C   0  0  0  0  0  0  0  0  0  0  0  0
   21.5200    8.3710   30.5390 C   0  0  0  0  0  0  0  0  0  0  0  0
   20.1110   11.7830   30.8770 C   0  0  0  0  0  0  0  0  0  0  0  0
   17.7272   11.9274   30.7090 C   0  0  0  0  0  0  0  0  0  0  0  0
   17.9629   10.8661   32.8442 F   0  0  0  0  0  0  0  0  0  0  0  0
   13.9221   10.3195   30.4192 F   0  0  0  0  0  0  0  0  0  0  0  0
   18.9662   12.5222   30.7785 O   0  0  0  0  0  0  0  0  0  0  0  0
   22.6990    7.7390   30.6640 N   0  0  0  0  0  0  0  0  0  0  0  0
   21.2570   13.7670   31.4640 O   0  0  0  0  0  0  0  0  0  0  0  0
   22.5560   11.8400   31.3820 N   0  0  0  0  0  0  0  0  0  0  0  0
   23.7460    9.7650   31.2550 N   0  0  0  0  0  0  0  0  0  0  0  0
   25.0102    7.7628   31.2437 N   0  0  0  0  0  0  0  0  0  0  0  0
   15.0294   11.8639   28.6453 H   0  0  0  0  0  0  0  0  0  0  0  0
   17.3037   12.8409   28.8104 H   0  0  0  0  0  0  0  0  0  0  0  0
   15.5477    9.9767   32.4453 H   0  0  0  0  0  0  0  0  0  0  0  0
   19.3169    9.8550   30.3580 H   0  0  0  0  0  0  0  0  0  0  0  0
   20.6585    7.7868   30.2466 H   0  0  0  0  0  0  0  0  0  0  0  0
   27.1502    8.0769   29.7004 H   0  0  0  0  0  0  0  0  0  0  0  0
   26.3647    9.6396   29.7900 H   0  0  0  0  0  0  0  0  0  0  0  0
   28.1545   10.5058   31.2900 H   0  0  0  0  0  0  0  0  0  0  0  0
   28.8721    9.8492   29.8413 H   0  0  0  0  0  0  0  0  0  0  0  0
   29.1456    7.5621   33.2566 H   0  0  0  0  0  0  0  0  0  0  0  0
   28.3319    9.1042   33.3985 H   0  0  0  0  0  0  0  0  0  0  0  0
   26.6449    7.2704   33.3771 H   0  0  0  0  0  0  0  0  0  0  0  0
   27.3352    6.6289   31.9002 H   0  0  0  0  0  0  0  0  0  0  0  0
   25.9735    9.3539   32.2220 H   0  0  0  0  0  0  0  0  0  0  0  0
   24.6255   11.8232   31.5410 H   0  0  0  0  0  0  0  0  0  0  0  0
   25.0679    6.7765   31.0125 H   0  0  0  0  0  0  0  0  0  0  0  0
   25.3927   13.1140   33.6749 C   0  0  2  0  0  0  0  0  0  0  0  0
   23.9469   12.7330   33.2953 C   0  0  1  0  0  0  0  0  0  0  0  0
   23.8207   12.5159   31.7818 C   0  0  2  0  0  0  0  0  0  0  0  0
   24.2624   13.7913   31.0228 C   0  0  2  0  0  0  0  0  0  0  0  0
   25.7121   14.1781   31.3948 C   0  0  1  0  0  0  0  0  0  0  0  0
   25.9087   14.2532   32.8696 N   0  0  0  0  0  0  0  0  0  0  0  0
   26.0689   12.2722   33.5168 H   0  0  0  0  0  0  0  0  0  0  0  0
   25.4583   13.3739   34.7311 H   0  0  0  0  0  0  0  0  0  0  0  0
   23.6400   11.8306   33.8217 H   0  0  0  0  0  0  0  0  0  0  0  0
   23.2423   13.4995   33.6127 H   0  0  0  0  0  0  0  0  0  0  0  0
   23.6030   14.6263   31.2621 H   0  0  0  0  0  0  0  0  0  0  0  0
   24.1861   13.6370   29.9455 H   0  0  0  0  0  0  0  0  0  0  0  0
   26.4203   13.4448   31.0046 H   0  0  0  0  0  0  0  0  0  0  0  0
   25.9870   15.1377   30.9542 H   0  0  0  0  0  0  0  0  0  0  0  0
   27.3332   15.1055   33.4894 S   0  0  2  0  0  0  0  0  0  0  0  0
   27.1973   15.2488   34.9443 O   0  0  0  0  0  0  0  0  0  0  0  0
   27.5725   16.2900   32.6569 O   0  0  0  0  0  0  0  0  0  0  0  0
   28.7210   13.9085   33.1749 C   0  0  1  0  0  0  0  0  0  0  0  0
   28.5146   12.9953   33.7256 H   0  0  0  0  0  0  0  0  0  0  0  0
   28.7711   13.7156   32.1065 H   0  0  0  0  0  0  0  0  0  0  0  0
   29.6416   14.3663   33.5250 H   0  0  0  0  0  0  0  0  0  0  0  0
  1  2  1  0
  1 10  1  0
  1 33  1  6
  1 34  1  0
  2  6  1  0
  2 35  1  1
  2 36  1  0
  3  4  1  0
  3  6  1  0
  3 37  1  1
  3 38  1  0
  4 10  1  0
  4 39  1  1
  4 40  1  0
  5  8  1  0
  5 13  2  0
  5 30  1  0
  7 18  1  0
  7 24  2  0
  7 25  1  0
  8 19  2  0
  8 20  1  0
  9 23  1  0
  9 26  2  0
  9 27  1  0
 10 27  1  0
 10 41  1  1
 11 12  1  0
 11 16  2  0
 11 17  1  0
 12 18  2  0
 12 31  1  0
 13 14  1  0
 13 21  1  0
 14 15  2  0
 14 28  1  0
 15 19  1  0
 15 29  1  0
 16 25  1  0
 16 26  1  0
 17 23  2  0
 17 32  1  0
 18 22  1  0
 19 22  1  0
 25 46  1  0
 27 43  1  0
 46 42  1  6
 44 45  1  0
 44 49  1  0
 44 50  1  1
 44 51  1  0
 45 46  1  0
 45 52  1  1
 45 53  1  0
 46 47  1  0
 47 48  1  0
 47 54  1  1
 47 55  1  0
 48 49  1  0
 48 56  1  6
 48 57  1  0
 58 49  1  6
 58 59  2  0
 58 60  2  0
 58 61  1  0
 61 62  1  1
 61 63  1  0
 61 64  1  0
M  END
