m-xylene
     RDKit          3D

 18 18  0  0  1  0  0  0  0  0999 V2000
   -7.2944    7.1637   -0.9565 C   0  0  0  0  0  0  0  0  0  0  0  0
   -7.8666    6.0570   -1.5923 C   0  0  0  0  0  0  0  0  0  0  0  0
   -8.6603    6.2343   -2.7246 C   0  0  0  0  0  0  0  0  0  0  0  0
   -8.8944    7.5191   -3.2148 C   0  0  0  0  0  0  0  0  0  0  0  0
   -8.3035    8.6210   -2.6005 C   0  0  0  0  0  0  0  0  0  0  0  0
   -7.5004    8.4443   -1.4758 C   0  0  0  0  0  0  0  0  0  0  0  0
   -6.4979    6.9780    0.3223 C   0  0  2  0  0  0  0  0  0  0  0  0
   -7.7099    5.0629   -1.2014 H   0  0  0  0  0  0  0  0  0  0  0  0
   -9.5294    7.6705   -4.0709 H   0  0  0  0  0  0  0  0  0  0  0  0
   -8.4705    9.6119   -2.9925 H   0  0  0  0  0  0  0  0  0  0  0  0
   -7.0579    9.3041   -0.9946 H   0  0  0  0  0  0  0  0  0  0  0  0
   -5.7032    7.7224    0.3851 H   0  0  0  0  0  0  0  0  0  0  0  0
   -5.9879    6.0152    0.2721 H   0  0  0  0  0  0  0  0  0  0  0  0
   -7.1478    7.0286    1.1958 H   0  0  0  0  0  0  0  0  0  0  0  0
   -9.2717    5.0269   -3.4210 C   0  0  1  0  0  0  0  0  0  0  0  0
   -9.8705    5.3683   -4.3024 H   0  0  0  0  0  0  0  0  0  0  0  0
   -8.4562    4.3431   -3.7664 H   0  0  0  0  0  0  0  0  0  0  0  0
   -9.9377    4.4818   -2.7061 H   0  0  0  0  0  0  0  0  0  0  0  0
  1  2  1  0
  1  6  2  0
  1  7  1  0
  2  3  2  0
  2  8  1  0
  3  4  1  0
  3 15  1  0
  4  5  2  0
  4  9  1  0
  5  6  1  0
  5 10  1  0
  6 11  1  0
  7 12  1  1
  7 13  1  0
  7 14  1  0
 15 16  1  6
 15 17  1  0
 15 18  1  0
M  END
