methyl benzene
     RDKit          3D

 15 15  0  0  1  0  0  0  0  0999 V2000
   -7.2858    7.1609   -0.9477 C   0  0  0  0  0  0  0  0  0  0  0  0
   -7.8665    6.0569   -1.5923 C   0  0  0  0  0  0  0  0  0  0  0  0
   -8.6603    6.2343   -2.7247 C   0  0  0  0  0  0  0  0  0  0  0  0
   -8.8944    7.5191   -3.2149 C   0  0  0  0  0  0  0  0  0  0  0  0
   -8.3035    8.6211   -2.6006 C   0  0  0  0  0  0  0  0  0  0  0  0
   -7.5003    8.4444   -1.4758 C   0  0  0  0  0  0  0  0  0  0  0  0
   -7.7098    5.0628   -1.2014 H   0  0  0  0  0  0  0  0  0  0  0  0
   -9.0935    5.3789   -3.2180 H   0  0  0  0  0  0  0  0  0  0  0  0
   -9.5294    7.6705   -4.0709 H   0  0  0  0  0  0  0  0  0  0  0  0
   -8.4705    9.6119   -2.9925 H   0  0  0  0  0  0  0  0  0  0  0  0
   -7.0579    9.3041   -0.9946 H   0  0  0  0  0  0  0  0  0  0  0  0
   -6.4407    6.9550    0.3012 C   0  0  1  0  0  0  0  0  0  0  0  0
   -6.0680    7.9447    0.6666 H   0  0  0  0  0  0  0  0  0  0  0  0
   -7.0625    6.4736    1.0971 H   0  0  0  0  0  0  0  0  0  0  0  0
   -5.5702    6.2954    0.0579 H   0  0  0  0  0  0  0  0  0  0  0  0
  1  2  1  0
  1  6  2  0
  1 12  1  0
  2  3  2  0
  2  7  1  0
  3  4  1  0
  3  8  1  0
  4  5  2  0
  4  9  1  0
  5  6  1  0
  5 10  1  0
  6 11  1  0
 12 13  1  1
 12 14  1  0
 12 15  1  0
M  END
