1
     RDKit          3D

 52 56  0  0  1  0  0  0  0  0999 V2000
    9.8750    4.4611   14.5948 C   0  0  0  0  0  0  0  0  0  0  0  0
   10.5150    5.4886   15.2816 C   0  0  0  0  0  0  0  0  0  0  0  0
    9.7668    6.4147   16.0004 C   0  0  0  0  0  0  0  0  0  0  0  0
    8.3689    6.3364   16.0194 C   0  0  0  0  0  0  0  0  0  0  0  0
    7.7150    5.3324   15.2703 C   0  0  0  0  0  0  0  0  0  0  0  0
    8.4863    4.3866   14.5828 C   0  0  0  0  0  0  0  0  0  0  0  0
    6.3049    5.3200   15.1815 N   0  0  0  0  0  0  0  0  0  0  0  0
    5.5929    4.0459   15.0839 C   0  0  1  0  0  0  0  0  0  0  0  0
    4.0683    4.2215   15.2729 C   0  0  1  0  0  0  0  0  0  0  0  0
    3.5568    5.3004   14.3496 N   0  0  1  0  0  0  0  0  0  0  0  0
    4.2943    6.6069   14.5125 C   0  0  1  0  0  0  0  0  0  0  0  0
    5.7975    6.3804   14.3095 C   0  0  1  0  0  0  0  0  0  0  0  0
    7.5779    7.1693   16.8413 N   0  0  0  0  0  0  0  0  0  0  0  0
    7.7721    8.4176   17.3121 C   0  0  0  0  0  0  0  0  0  0  0  0
    8.7499    9.1122   17.0454 O   0  0  0  0  0  0  0  0  0  0  0  0
    6.6786    8.8970   18.1847 C   0  0  0  0  0  0  0  0  0  0  0  0
    5.5434    8.2270   18.3174 N   0  0  0  0  0  0  0  0  0  0  0  0
    4.6461    8.8413   19.0563 C   0  0  0  0  0  0  0  0  0  0  0  0
    5.2315   10.3548   19.7030 S   0  0  0  0  0  0  0  0  0  0  0  0
    6.7331   10.0974   18.8745 C   0  0  0  0  0  0  0  0  0  0  0  0
    3.2766    8.3671   19.2449 C   0  0  0  0  0  0  0  0  0  0  0  0
    2.3586    9.0680   20.0544 C   0  0  0  0  0  0  0  0  0  0  0  0
    1.0320    8.6430   20.1908 C   0  0  0  0  0  0  0  0  0  0  0  0
    0.6250    7.5030   19.5069 C   0  0  0  0  0  0  0  0  0  0  0  0
    1.5146    6.8020   18.7268 C   0  0  0  0  0  0  0  0  0  0  0  0
    2.8359    7.2053   18.5813 C   0  0  0  0  0  0  0  0  0  0  0  0
   -0.6251    6.9563   19.4993 O   0  0  0  0  0  0  0  0  0  0  0  0
   -0.5992    5.8116   18.6486 C   0  0  1  0  0  0  0  0  0  0  0  0
    0.8289    5.6246   18.1023 C   0  0  1  0  0  0  0  0  0  0  0  0
   10.4471    3.7317   14.0442 H   0  0  0  0  0  0  0  0  0  0  0  0
   11.5915    5.5614   15.2738 H   0  0  0  0  0  0  0  0  0  0  0  0
   10.2919    7.1712   16.5574 H   0  0  0  0  0  0  0  0  0  0  0  0
    8.0175    3.6112   13.9959 H   0  0  0  0  0  0  0  0  0  0  0  0
    5.7890    3.5963   14.1099 H   0  0  0  0  0  0  0  0  0  0  0  0
    5.9812    3.3660   15.8398 H   0  0  0  0  0  0  0  0  0  0  0  0
    3.5097    3.3196   15.0298 H   0  0  0  0  0  0  0  0  0  0  0  0
    3.8166    4.5197   16.2920 H   0  0  0  0  0  0  0  0  0  0  0  0
    3.6902    4.9782   13.3977 H   0  0  0  0  0  0  0  0  0  0  0  0
    2.5607    5.4303   14.4984 H   0  0  0  0  0  0  0  0  0  0  0  0
    3.9099    7.3198   13.7881 H   0  0  0  0  0  0  0  0  0  0  0  0
    4.0803    6.9757   15.5165 H   0  0  0  0  0  0  0  0  0  0  0  0
    6.3255    7.3161   14.4897 H   0  0  0  0  0  0  0  0  0  0  0  0
    5.9944    6.1117   13.2695 H   0  0  0  0  0  0  0  0  0  0  0  0
    6.6734    6.7836   17.0693 H   0  0  0  0  0  0  0  0  0  0  0  0
    7.5388   10.8148   18.9168 H   0  0  0  0  0  0  0  0  0  0  0  0
    2.6588    9.9603   20.5830 H   0  0  0  0  0  0  0  0  0  0  0  0
    0.3343    9.1939   20.8044 H   0  0  0  0  0  0  0  0  0  0  0  0
    3.4980    6.6306   17.9502 H   0  0  0  0  0  0  0  0  0  0  0  0
   -0.9277    4.9359   19.2086 H   0  0  0  0  0  0  0  0  0  0  0  0
   -1.3035    5.9493   17.8288 H   0  0  0  0  0  0  0  0  0  0  0  0
    0.8693    5.6850   17.0149 H   0  0  0  0  0  0  0  0  0  0  0  0
    1.2838    4.6890   18.4281 H   0  0  0  0  0  0  0  0  0  0  0  0
  1  2  1  0
  1  6  2  0
  1 30  1  0
  2  3  2  0
  2 31  1  0
  3  4  1  0
  3 32  1  0
  4  5  2  0
  4 13  1  0
  5  6  1  0
  5  7  1  0
  6 33  1  0
  7  8  1  0
  7 12  1  0
  8  9  1  0
  8 34  1  6
  8 35  1  0
  9 10  1  0
  9 36  1  6
  9 37  1  0
 10 11  1  0
 10 38  1  6
 10 39  1  0
 11 12  1  0
 11 40  1  6
 11 41  1  0
 12 42  1  1
 12 43  1  0
 13 14  1  0
 13 44  1  0
 14 15  2  0
 14 16  1  0
 16 17  1  0
 16 20  2  0
 17 18  2  0
 18 19  1  0
 18 21  1  0
 19 20  1  0
 20 45  1  0
 21 22  1  0
 21 26  2  0
 22 23  2  0
 22 46  1  0
 23 24  1  0
 23 47  1  0
 24 25  2  0
 24 27  1  0
 25 26  1  0
 25 29  1  0
 26 48  1  0
 27 28  1  0
 28 29  1  0
 28 49  1  1
 28 50  1  0
 29 51  1  6
 29 52  1  0
M  CHG  1  10   1
M  END
