21
     RDKit          3D

 56 60  0  0  1  0  0  0  0  0999 V2000
    8.7499    9.1122   17.0454 O   0  0  0  0  0  0  0  0  0  0  0  0
    7.7721    8.4176   17.3121 C   0  0  0  0  0  0  0  0  0  0  0  0
    7.5779    7.1693   16.8413 N   0  0  0  0  0  0  0  0  0  0  0  0
    8.3689    6.3364   16.0194 C   0  0  0  0  0  0  0  0  0  0  0  0
    9.7668    6.4147   16.0004 C   0  0  0  0  0  0  0  0  0  0  0  0
   10.5150    5.4886   15.2816 C   0  0  0  0  0  0  0  0  0  0  0  0
    9.8750    4.4611   14.5948 C   0  0  0  0  0  0  0  0  0  0  0  0
    8.4863    4.3866   14.5828 C   0  0  0  0  0  0  0  0  0  0  0  0
    7.7150    5.3324   15.2703 C   0  0  0  0  0  0  0  0  0  0  0  0
    6.3049    5.3200   15.1815 N   0  0  0  0  0  0  0  0  0  0  0  0
    5.5929    4.0459   15.0839 C   0  0  1  0  0  0  0  0  0  0  0  0
    4.0683    4.2215   15.2729 C   0  0  1  0  0  0  0  0  0  0  0  0
    3.5568    5.3004   14.3496 N   0  0  1  0  0  0  0  0  0  0  0  0
    4.2943    6.6069   14.5125 C   0  0  1  0  0  0  0  0  0  0  0  0
    5.7975    6.3804   14.3095 C   0  0  1  0  0  0  0  0  0  0  0  0
    6.6786    8.8970   18.1847 C   0  0  0  0  0  0  0  0  0  0  0  0
    6.7331   10.0974   18.8745 C   0  0  0  0  0  0  0  0  0  0  0  0
    5.2315   10.3548   19.7030 S   0  0  0  0  0  0  0  0  0  0  0  0
    4.6461    8.8413   19.0563 C   0  0  0  0  0  0  0  0  0  0  0  0
    3.2633    8.3325   19.3375 C   0  0  0  0  0  0  0  0  0  0  0  0
    2.3837    9.0902   20.1402 C   0  0  0  0  0  0  0  0  0  0  0  0
    1.0896    8.6176   20.4229 C   0  0  0  0  0  0  0  0  0  0  0  0
    0.6436    7.3821   19.9154 C   0  0  0  0  0  0  0  0  0  0  0  0
   -0.6114    6.9720   20.3089 O   0  0  0  0  0  0  0  0  0  0  0  0
   -0.7829    5.5741   20.4909 C   0  0  1  0  0  0  0  0  0  0  0  0
   -1.1039    4.8792   19.1663 C   0  0  1  0  0  0  0  0  0  0  0  0
   -0.2147    5.3667   18.0207 C   0  0  1  0  0  0  0  0  0  0  0  0
    1.1421    5.4629   18.4293 O   0  0  0  0  0  0  0  0  0  0  0  0
    1.5034    6.6334   19.0599 C   0  0  0  0  0  0  0  0  0  0  0  0
    2.8075    7.1052   18.8052 C   0  0  0  0  0  0  0  0  0  0  0  0
    5.5434    8.2270   18.3174 N   0  0  0  0  0  0  0  0  0  0  0  0
    6.6632    6.7739   17.0007 H   0  0  0  0  0  0  0  0  0  0  0  0
   10.2909    7.1768   16.5570 H   0  0  0  0  0  0  0  0  0  0  0  0
   11.5928    5.5591   15.2665 H   0  0  0  0  0  0  0  0  0  0  0  0
   10.4574    3.7159   14.0731 H   0  0  0  0  0  0  0  0  0  0  0  0
    8.0278    3.5874   14.0234 H   0  0  0  0  0  0  0  0  0  0  0  0
    5.7931    3.6147   14.1024 H   0  0  0  0  0  0  0  0  0  0  0  0
    5.9597    3.3290   15.8192 H   0  0  0  0  0  0  0  0  0  0  0  0
    3.5499    3.2845   15.0685 H   0  0  0  0  0  0  0  0  0  0  0  0
    3.8455    4.4911   16.3063 H   0  0  0  0  0  0  0  0  0  0  0  0
    3.6747    4.9847   13.3975 H   0  0  0  0  0  0  0  0  0  0  0  0
    3.9074    7.3317   13.7959 H   0  0  0  0  0  0  0  0  0  0  0  0
    4.0764    7.0031   15.5038 H   0  0  0  0  0  0  0  0  0  0  0  0
    6.3542    7.3065   14.4587 H   0  0  0  0  0  0  0  0  0  0  0  0
    5.9870    6.0777   13.2791 H   0  0  0  0  0  0  0  0  0  0  0  0
    7.5463   10.8054   18.9318 H   0  0  0  0  0  0  0  0  0  0  0  0
    2.6969   10.0360   20.5578 H   0  0  0  0  0  0  0  0  0  0  0  0
    0.4391    9.1994   21.0594 H   0  0  0  0  0  0  0  0  0  0  0  0
    0.1053    5.1380   20.9523 H   0  0  0  0  0  0  0  0  0  0  0  0
   -1.5979    5.4116   21.1965 H   0  0  0  0  0  0  0  0  0  0  0  0
   -0.9891    3.8026   19.2953 H   0  0  0  0  0  0  0  0  0  0  0  0
   -2.1476    5.0481   18.8998 H   0  0  0  0  0  0  0  0  0  0  0  0
   -0.2787    4.6694   17.1853 H   0  0  0  0  0  0  0  0  0  0  0  0
   -0.5667    6.3269   17.6382 H   0  0  0  0  0  0  0  0  0  0  0  0
    3.4437    6.5115   18.1667 H   0  0  0  0  0  0  0  0  0  0  0  0
    2.5733    5.4497   14.5250 H   0  0  0  0  0  0  0  0  0  0  0  0
  1  2  2  0
  2  3  1  0
  2 16  1  0
  3  4  1  0
  3 32  1  0
  4  9  1  0
  4  5  2  0
  5  6  1  0
  5 33  1  0
  6  7  2  0
  6 34  1  0
  7  8  1  0
  7 35  1  0
  8  9  2  0
  8 36  1  0
  9 10  1  0
 10 15  1  0
 10 11  1  0
 11 12  1  0
 11 37  1  6
 11 38  1  0
 12 13  1  0
 12 39  1  6
 12 40  1  0
 13 14  1  0
 13 41  1  6
 13 56  1  0
 14 15  1  0
 14 42  1  6
 14 43  1  0
 15 44  1  1
 15 45  1  0
 16 31  1  0
 16 17  2  0
 17 18  1  0
 17 46  1  0
 18 19  1  0
 19 20  1  0
 19 31  2  0
 20 30  1  0
 20 21  2  0
 21 22  1  0
 21 47  1  0
 22 23  2  0
 22 48  1  0
 23 29  1  0
 23 24  1  0
 24 25  1  0
 25 26  1  0
 25 49  1  1
 25 50  1  0
 26 27  1  0
 26 51  1  1
 26 52  1  0
 27 28  1  0
 27 53  1  6
 27 54  1  0
 28 29  1  0
 29 30  2  0
 30 55  1  0
M  CHG  1  13   1
M  END
