CHEMBL1084676_1
     RDKit          3D

 64 67  0  0  1  0  0  0  0  0999 V2000
   13.5888   -6.3869   12.5315 C   0  0  2  0  0  0  0  0  0  0  0  0
   14.4853   -5.6928   11.4714 N   0  0  0  0  0  0  0  0  0  0  0  0
   15.6682   -4.9615   12.1802 C   0  0  2  0  0  0  0  0  0  0  0  0
   14.9239   -6.7355   10.3893 C   0  0  1  0  0  0  0  0  0  0  0  0
   15.7234   -6.0600    9.2486 C   0  0  1  0  0  0  0  0  0  0  0  0
   14.8622   -5.4125    8.3063 O   0  0  0  0  0  0  0  0  0  0  0  0
   15.3953   -4.5487    7.4090 C   0  0  0  0  0  0  0  0  0  0  0  0
   16.5984   -4.2604    7.3331 O   0  0  0  0  0  0  0  0  0  0  0  0
   14.3974   -4.0329    6.5964 N   0  0  0  0  0  0  0  0  0  0  0  0
   14.7037   -3.0720    5.5289 C   0  0  1  0  0  0  0  0  0  0  0  0
   14.9309   -3.7204    4.1407 C   0  0  1  0  0  0  0  0  0  0  0  0
   15.1863   -5.2624    4.1758 C   0  0  1  0  0  0  0  0  0  0  0  0
   15.2234   -5.8847    2.7763 C   0  0  1  0  0  0  0  0  0  0  0  0
   14.0826   -5.3744    1.8604 C   0  0  1  0  0  0  0  0  0  0  0  0
   12.6922   -6.0180    2.1518 C   0  0  2  0  0  0  0  0  0  0  0  0
   12.7516   -7.5416    2.0249 C   0  0  0  0  0  0  0  0  0  0  0  0
   12.3967   -8.3536    3.1075 C   0  0  0  0  0  0  0  0  0  0  0  0
   12.4840   -9.7427    2.9944 C   0  0  0  0  0  0  0  0  0  0  0  0
   12.9203  -10.3231    1.8032 C   0  0  0  0  0  0  0  0  0  0  0  0
   13.2734   -9.5209    0.7154 C   0  0  0  0  0  0  0  0  0  0  0  0
   13.1883   -8.1329    0.8289 C   0  0  0  0  0  0  0  0  0  0  0  0
   11.6518   -5.4493    1.2731 N   0  0  0  0  0  0  0  0  0  0  0  0
   11.7367   -4.1130    0.8160 C   0  0  0  0  0  0  0  0  0  0  0  0
   10.7031   -3.6192    0.0068 C   0  0  0  0  0  0  0  0  0  0  0  0
   10.7641   -2.3153   -0.4915 C   0  0  0  0  0  0  0  0  0  0  0  0
   11.8619   -1.4955   -0.1850 C   0  0  0  0  0  0  0  0  0  0  0  0
   11.9483   -0.0760   -0.7467 C   0  0  1  0  0  0  0  0  0  0  0  0
   10.7116    0.4149   -0.9090 F   0  0  0  0  0  0  0  0  0  0  0  0
   12.6424    0.7398    0.0576 F   0  0  0  0  0  0  0  0  0  0  0  0
   12.5553   -0.1223   -1.9411 F   0  0  0  0  0  0  0  0  0  0  0  0
   12.8836   -1.9889    0.6348 C   0  0  0  0  0  0  0  0  0  0  0  0
   12.8449   -3.3001    1.1276 C   0  0  0  0  0  0  0  0  0  0  0  0
   14.0024   -3.8306    1.9563 C   0  0  1  0  0  0  0  0  0  0  0  0
   13.8028   -3.4260    3.3107 O   0  0  0  0  0  0  0  0  0  0  0  0
   13.2823   -5.6520   13.2904 H   0  0  0  0  0  0  0  0  0  0  0  0
   14.1530   -7.1986   13.0141 H   0  0  0  0  0  0  0  0  0  0  0  0
   12.6958   -6.8021   12.0414 H   0  0  0  0  0  0  0  0  0  0  0  0
   15.2698   -4.2518   12.9202 H   0  0  0  0  0  0  0  0  0  0  0  0
   16.2630   -4.4164   11.4326 H   0  0  0  0  0  0  0  0  0  0  0  0
   16.3053   -5.7010   12.6875 H   0  0  0  0  0  0  0  0  0  0  0  0
   15.5598   -7.5025   10.8556 H   0  0  0  0  0  0  0  0  0  0  0  0
   14.0320   -7.2122    9.9566 H   0  0  0  0  0  0  0  0  0  0  0  0
   16.4006   -5.3043    9.6731 H   0  0  0  0  0  0  0  0  0  0  0  0
   16.3115   -6.8199    8.7131 H   0  0  0  0  0  0  0  0  0  0  0  0
   13.3596   -4.3568    6.7636 H   0  0  0  0  0  0  0  0  0  0  0  0
   13.8689   -2.3636    5.4226 H   0  0  0  0  0  0  0  0  0  0  0  0
   15.6215   -2.5216    5.7833 H   0  0  0  0  0  0  0  0  0  0  0  0
   15.8039   -3.2448    3.6698 H   0  0  0  0  0  0  0  0  0  0  0  0
   16.1531   -5.4630    4.6606 H   0  0  0  0  0  0  0  0  0  0  0  0
   14.3825   -5.7544    4.7432 H   0  0  0  0  0  0  0  0  0  0  0  0
   16.1791   -5.6382    2.2906 H   0  0  0  0  0  0  0  0  0  0  0  0
   15.1247   -6.9772    2.8580 H   0  0  0  0  0  0  0  0  0  0  0  0
   14.3416   -5.6810    0.8362 H   0  0  0  0  0  0  0  0  0  0  0  0
   12.3696   -5.7725    3.1744 H   0  0  0  0  0  0  0  0  0  0  0  0
   12.0598   -7.9117    4.0318 H   0  0  0  0  0  0  0  0  0  0  0  0
   12.2077  -10.3664    3.8376 H   0  0  0  0  0  0  0  0  0  0  0  0
   12.9834  -11.4017    1.7178 H   0  0  0  0  0  0  0  0  0  0  0  0
   13.6056   -9.9692   -0.2080 H   0  0  0  0  0  0  0  0  0  0  0  0
   13.4551   -7.5184   -0.0138 H   0  0  0  0  0  0  0  0  0  0  0  0
   10.7950   -6.0663    0.9646 H   0  0  0  0  0  0  0  0  0  0  0  0
    9.8558   -4.2401   -0.2381 H   0  0  0  0  0  0  0  0  0  0  0  0
    9.9611   -1.9507   -1.1139 H   0  0  0  0  0  0  0  0  0  0  0  0
   13.7322   -1.3666    0.8697 H   0  0  0  0  0  0  0  0  0  0  0  0
   14.9525   -3.3778    1.6365 H   0  0  0  0  0  0  0  0  0  0  0  0
  1  2  1  0
  1 35  1  1
  1 36  1  0
  1 37  1  0
  2  3  1  0
  2  4  1  0
  3 38  1  1
  3 39  1  0
  3 40  1  0
  4  5  1  0
  4 41  1  1
  4 42  1  0
  5  6  1  0
  5 43  1  1
  5 44  1  0
  6  7  1  0
  7  8  2  0
  7  9  1  0
  9 10  1  0
  9 45  1  0
 10 11  1  0
 10 46  1  6
 10 47  1  0
 11 12  1  0
 11 34  1  0
 11 48  1  6
 12 13  1  0
 12 49  1  1
 12 50  1  0
 13 14  1  0
 13 51  1  6
 13 52  1  0
 14 15  1  0
 14 33  1  0
 14 53  1  6
 15 16  1  0
 15 22  1  0
 15 54  1  1
 16 17  2  0
 16 21  1  0
 17 18  1  0
 17 55  1  0
 18 19  2  0
 18 56  1  0
 19 20  1  0
 19 57  1  0
 20 21  2  0
 20 58  1  0
 21 59  1  0
 22 23  1  0
 22 60  1  0
 23 24  2  0
 23 32  1  0
 24 25  1  0
 24 61  1  0
 25 26  2  0
 25 62  1  0
 26 27  1  0
 26 31  1  0
 27 28  1  6
 27 29  1  0
 27 30  1  0
 31 32  2  0
 31 63  1  0
 32 33  1  0
 33 34  1  0
 33 64  1  6
M  END
