CHEMBL1084935_1
     RDKit          3D

 69 72  0  0  1  0  0  0  0  0999 V2000
   18.0312   -2.3142    7.2088 C   0  0  2  0  0  0  0  0  0  0  0  0
   17.0456   -2.7370    6.0895 C   0  0  1  0  0  0  0  0  0  0  0  0
   15.6658   -3.1925    6.6503 N   0  0  0  0  0  0  0  0  0  0  0  0
   15.7678   -4.4950    7.5019 C   0  0  1  0  0  0  0  0  0  0  0  0
   14.4312   -4.8357    8.2209 C   0  0  1  0  0  0  0  0  0  0  0  0
   14.6137   -5.9993    9.0205 O   0  0  0  0  0  0  0  0  0  0  0  0
   14.5187   -3.1600    5.5815 C   0  0  1  0  0  0  0  0  0  0  0  0
   14.8832   -3.7447    4.1915 C   0  0  1  0  0  0  0  0  0  0  0  0
   15.1744   -5.2721    4.1973 C   0  0  1  0  0  0  0  0  0  0  0  0
   15.2218   -5.8859    2.7820 C   0  0  1  0  0  0  0  0  0  0  0  0
   14.0797   -5.3829    1.8564 C   0  0  1  0  0  0  0  0  0  0  0  0
   12.6865   -6.0331    2.1418 C   0  0  2  0  0  0  0  0  0  0  0  0
   12.7422   -7.5595    2.0207 C   0  0  0  0  0  0  0  0  0  0  0  0
   13.1811   -8.1443    0.8221 C   0  0  0  0  0  0  0  0  0  0  0  0
   13.2689   -9.5323    0.7095 C   0  0  0  0  0  0  0  0  0  0  0  0
   12.9184  -10.3340    1.7953 C   0  0  0  0  0  0  0  0  0  0  0  0
   12.4817   -9.7563    2.9904 C   0  0  0  0  0  0  0  0  0  0  0  0
   12.3882   -8.3684    3.1075 C   0  0  0  0  0  0  0  0  0  0  0  0
   11.6484   -5.4585    1.2735 N   0  0  0  0  0  0  0  0  0  0  0  0
   11.7341   -4.1273    0.8170 C   0  0  0  0  0  0  0  0  0  0  0  0
   10.7069   -3.6340    0.0039 C   0  0  0  0  0  0  0  0  0  0  0  0
   10.7683   -2.3302   -0.4910 C   0  0  0  0  0  0  0  0  0  0  0  0
   11.8617   -1.4950   -0.1745 C   0  0  0  0  0  0  0  0  0  0  0  0
   11.9892   -0.0591   -0.7455 C   0  0  1  0  0  0  0  0  0  0  0  0
   12.7330    0.9064    0.2291 C   0  0  2  0  0  0  0  0  0  0  0  0
   12.8398   -0.1472   -2.0375 C   0  0  2  0  0  0  0  0  0  0  0  0
   10.5809    0.5259   -1.0331 C   0  0  2  0  0  0  0  0  0  0  0  0
   12.8778   -2.0077    0.6420 C   0  0  0  0  0  0  0  0  0  0  0  0
   12.8443   -3.3135    1.1300 C   0  0  0  0  0  0  0  0  0  0  0  0
   14.0048   -3.8427    1.9556 C   0  0  1  0  0  0  0  0  0  0  0  0
   13.8044   -3.4261    3.3084 O   0  0  0  0  0  0  0  0  0  0  0  0
   18.9855   -2.0031    6.7588 H   0  0  0  0  0  0  0  0  0  0  0  0
   18.2045   -3.1643    7.8850 H   0  0  0  0  0  0  0  0  0  0  0  0
   17.6029   -1.4752    7.7769 H   0  0  0  0  0  0  0  0  0  0  0  0
   16.8723   -1.8869    5.4133 H   0  0  0  0  0  0  0  0  0  0  0  0
   17.4739   -3.5759    5.5214 H   0  0  0  0  0  0  0  0  0  0  0  0
   16.0285   -5.3408    6.8487 H   0  0  0  0  0  0  0  0  0  0  0  0
   16.5458   -4.3712    8.2696 H   0  0  0  0  0  0  0  0  0  0  0  0
   14.1332   -3.9915    8.8600 H   0  0  0  0  0  0  0  0  0  0  0  0
   13.6485   -5.0220    7.4709 H   0  0  0  0  0  0  0  0  0  0  0  0
   13.7751   -6.3990    9.6095 H   0  0  0  0  0  0  0  0  0  0  0  0
   13.6602   -3.7423    5.9472 H   0  0  0  0  0  0  0  0  0  0  0  0
   14.2085   -2.1190    5.4081 H   0  0  0  0  0  0  0  0  0  0  0  0
   15.7840   -3.2569    3.7907 H   0  0  0  0  0  0  0  0  0  0  0  0
   16.1485   -5.4579    4.6734 H   0  0  0  0  0  0  0  0  0  0  0  0
   14.3860   -5.7935    4.7599 H   0  0  0  0  0  0  0  0  0  0  0  0
   16.1766   -5.6263    2.3015 H   0  0  0  0  0  0  0  0  0  0  0  0
   15.1329   -6.9800    2.8536 H   0  0  0  0  0  0  0  0  0  0  0  0
   14.3351   -5.6859    0.8302 H   0  0  0  0  0  0  0  0  0  0  0  0
   12.3572   -5.7916    3.1632 H   0  0  0  0  0  0  0  0  0  0  0  0
   13.4495   -7.5286   -0.0219 H   0  0  0  0  0  0  0  0  0  0  0  0
   13.6067   -9.9808   -0.2138 H   0  0  0  0  0  0  0  0  0  0  0  0
   12.9888  -11.4090    1.7091 H   0  0  0  0  0  0  0  0  0  0  0  0
   12.2071  -10.3870    3.8263 H   0  0  0  0  0  0  0  0  0  0  0  0
   12.0413   -7.9319    4.0321 H   0  0  0  0  0  0  0  0  0  0  0  0
   10.7858   -6.0694    0.9692 H   0  0  0  0  0  0  0  0  0  0  0  0
    9.8647   -4.2599   -0.2523 H   0  0  0  0  0  0  0  0  0  0  0  0
    9.9681   -1.9946   -1.1265 H   0  0  0  0  0  0  0  0  0  0  0  0
   13.7354    0.5083    0.4456 H   0  0  0  0  0  0  0  0  0  0  0  0
   12.1627    0.9929    1.1658 H   0  0  0  0  0  0  0  0  0  0  0  0
   12.8253    1.8985   -0.2370 H   0  0  0  0  0  0  0  0  0  0  0  0
   13.8288   -0.5648   -1.7976 H   0  0  0  0  0  0  0  0  0  0  0  0
   12.9607    0.8586   -2.4661 H   0  0  0  0  0  0  0  0  0  0  0  0
   12.3339   -0.7978   -2.7659 H   0  0  0  0  0  0  0  0  0  0  0  0
   10.0057    0.5741   -0.0967 H   0  0  0  0  0  0  0  0  0  0  0  0
   10.0560   -0.1191   -1.7531 H   0  0  0  0  0  0  0  0  0  0  0  0
   10.6829    1.5373   -1.4533 H   0  0  0  0  0  0  0  0  0  0  0  0
   13.7392   -1.4073    0.8751 H   0  0  0  0  0  0  0  0  0  0  0  0
   14.9607   -3.4009    1.6374 H   0  0  0  0  0  0  0  0  0  0  0  0
  1  2  1  0
  1 32  1  6
  1 33  1  0
  1 34  1  0
  2  3  1  0
  2 35  1  6
  2 36  1  0
  3  4  1  0
  3  7  1  0
  4  5  1  0
  4 37  1  6
  4 38  1  0
  5  6  1  0
  5 39  1  1
  5 40  1  0
  6 41  1  0
  7  8  1  0
  7 42  1  1
  7 43  1  0
  8  9  1  0
  8 31  1  0
  8 44  1  6
  9 10  1  0
  9 45  1  1
  9 46  1  0
 10 11  1  0
 10 47  1  6
 10 48  1  0
 11 12  1  0
 11 30  1  0
 11 49  1  6
 12 13  1  0
 12 19  1  0
 12 50  1  1
 13 14  2  0
 13 18  1  0
 14 15  1  0
 14 51  1  0
 15 16  2  0
 15 52  1  0
 16 17  1  0
 16 53  1  0
 17 18  2  0
 17 54  1  0
 18 55  1  0
 19 20  1  0
 19 56  1  0
 20 21  2  0
 20 29  1  0
 21 22  1  0
 21 57  1  0
 22 23  2  0
 22 58  1  0
 24 23  1  1
 23 28  1  0
 24 25  1  0
 24 26  1  0
 24 27  1  0
 25 59  1  1
 25 60  1  0
 25 61  1  0
 26 62  1  1
 26 63  1  0
 26 64  1  0
 27 65  1  1
 27 66  1  0
 27 67  1  0
 28 29  2  0
 28 68  1  0
 29 30  1  0
 30 31  1  0
 30 69  1  6
M  END
