CHEMBL1096003_1
     RDKit          3D

 61 64  0  0  1  0  0  0  0  0999 V2000
   14.6815   -4.8514   11.9760 C   0  0  2  0  0  0  0  0  0  0  0  0
   14.4579   -5.6170   10.6398 N   0  0  0  0  0  0  0  0  0  0  0  0
   14.1968   -7.1106   10.9456 C   0  0  2  0  0  0  0  0  0  0  0  0
   15.5997   -5.4072    9.6003 C   0  0  1  0  0  0  0  0  0  0  0  0
   15.6900   -3.9240    9.1498 C   0  0  1  0  0  0  0  0  0  0  0  0
   14.1321   -3.3481    8.2107 S   0  0  2  0  0  0  0  0  0  0  0  0
   14.1795   -1.8832    8.1157 O   0  0  0  0  0  0  0  0  0  0  0  0
   12.9555   -4.0270    8.7715 O   0  0  0  0  0  0  0  0  0  0  0  0
   14.3723   -4.0021    6.6067 N   0  0  0  0  0  0  0  0  0  0  0  0
   14.8455   -3.0850    5.5399 C   0  0  1  0  0  0  0  0  0  0  0  0
   14.9696   -3.7393    4.1441 C   0  0  1  0  0  0  0  0  0  0  0  0
   15.2177   -5.2755    4.1787 C   0  0  1  0  0  0  0  0  0  0  0  0
   15.2338   -5.9007    2.7714 C   0  0  1  0  0  0  0  0  0  0  0  0
   14.0937   -5.3832    1.8532 C   0  0  1  0  0  0  0  0  0  0  0  0
   12.6976   -6.0304    2.1387 C   0  0  2  0  0  0  0  0  0  0  0  0
   12.7460   -7.5553    2.0182 C   0  0  0  0  0  0  0  0  0  0  0  0
   12.3856   -8.3662    3.1049 C   0  0  0  0  0  0  0  0  0  0  0  0
   12.4782   -9.7551    2.9912 C   0  0  0  0  0  0  0  0  0  0  0  0
   12.9205  -10.3307    1.7992 C   0  0  0  0  0  0  0  0  0  0  0  0
   13.2746   -9.5297    0.7106 C   0  0  0  0  0  0  0  0  0  0  0  0
   13.1810   -8.1436    0.8204 C   0  0  0  0  0  0  0  0  0  0  0  0
   11.6777   -5.4508    1.2594 N   0  0  0  0  0  0  0  0  0  0  0  0
   11.7647   -4.1067    0.8260 C   0  0  0  0  0  0  0  0  0  0  0  0
   10.7511   -3.6039    0.0073 C   0  0  0  0  0  0  0  0  0  0  0  0
    9.7447   -4.3853   -0.3273 F   0  0  0  0  0  0  0  0  0  0  0  0
   10.7794   -2.3007   -0.4850 C   0  0  0  0  0  0  0  0  0  0  0  0
   11.8577   -1.4847   -0.1700 C   0  0  0  0  0  0  0  0  0  0  0  0
   11.9184    0.1462   -0.7573 Cl  0  0  0  0  0  0  0  0  0  0  0  0
   12.8878   -1.9817    0.6375 C   0  0  0  0  0  0  0  0  0  0  0  0
   12.8675   -3.2961    1.1337 C   0  0  0  0  0  0  0  0  0  0  0  0
   14.0215   -3.8389    1.9632 C   0  0  1  0  0  0  0  0  0  0  0  0
   13.8242   -3.4416    3.3295 O   0  0  0  0  0  0  0  0  0  0  0  0
   13.8393   -5.0470   12.6560 H   0  0  0  0  0  0  0  0  0  0  0  0
   14.7465   -3.7721   11.7737 H   0  0  0  0  0  0  0  0  0  0  0  0
   15.6168   -5.1940   12.4427 H   0  0  0  0  0  0  0  0  0  0  0  0
   13.3845   -7.1974   11.6823 H   0  0  0  0  0  0  0  0  0  0  0  0
   15.1112   -7.5668   11.3527 H   0  0  0  0  0  0  0  0  0  0  0  0
   13.9090   -7.6296   10.0195 H   0  0  0  0  0  0  0  0  0  0  0  0
   16.5617   -5.6949   10.0493 H   0  0  0  0  0  0  0  0  0  0  0  0
   15.4078   -6.0301    8.7142 H   0  0  0  0  0  0  0  0  0  0  0  0
   15.8102   -3.2793   10.0330 H   0  0  0  0  0  0  0  0  0  0  0  0
   16.5544   -3.7956    8.4818 H   0  0  0  0  0  0  0  0  0  0  0  0
   14.0262   -5.0138    6.3486 H   0  0  0  0  0  0  0  0  0  0  0  0
   14.1419   -2.2454    5.4394 H   0  0  0  0  0  0  0  0  0  0  0  0
   15.8415   -2.6992    5.8032 H   0  0  0  0  0  0  0  0  0  0  0  0
   15.8155   -3.2553    3.6340 H   0  0  0  0  0  0  0  0  0  0  0  0
   16.1897   -5.4793    4.6515 H   0  0  0  0  0  0  0  0  0  0  0  0
   14.4191   -5.7629    4.7572 H   0  0  0  0  0  0  0  0  0  0  0  0
   16.1880   -5.6662    2.2769 H   0  0  0  0  0  0  0  0  0  0  0  0
   15.1218   -6.9919    2.8536 H   0  0  0  0  0  0  0  0  0  0  0  0
   14.3503   -5.6802    0.8256 H   0  0  0  0  0  0  0  0  0  0  0  0
   12.3606   -5.7936    3.1587 H   0  0  0  0  0  0  0  0  0  0  0  0
   12.0430   -7.9273    4.0289 H   0  0  0  0  0  0  0  0  0  0  0  0
   12.2038  -10.3832    3.8281 H   0  0  0  0  0  0  0  0  0  0  0  0
   12.9919  -11.4071    1.7125 H   0  0  0  0  0  0  0  0  0  0  0  0
   13.6071   -9.9866   -0.2101 H   0  0  0  0  0  0  0  0  0  0  0  0
   13.4530   -7.5263   -0.0225 H   0  0  0  0  0  0  0  0  0  0  0  0
   10.8270   -6.0631    0.9256 H   0  0  0  0  0  0  0  0  0  0  0  0
    9.9794   -1.9367   -1.1125 H   0  0  0  0  0  0  0  0  0  0  0  0
   13.7260   -1.3431    0.8715 H   0  0  0  0  0  0  0  0  0  0  0  0
   14.9737   -3.3891    1.6456 H   0  0  0  0  0  0  0  0  0  0  0  0
  1  2  1  0
  1 33  1  1
  1 34  1  0
  1 35  1  0
  2  3  1  0
  2  4  1  0
  3 36  1  1
  3 37  1  0
  3 38  1  0
  4  5  1  0
  4 39  1  1
  4 40  1  0
  5  6  1  0
  5 41  1  1
  5 42  1  0
  6  7  2  0
  6  8  2  0
  6  9  1  6
  9 10  1  0
  9 43  1  0
 10 11  1  0
 10 44  1  6
 10 45  1  0
 11 12  1  0
 11 32  1  0
 11 46  1  6
 12 13  1  0
 12 47  1  1
 12 48  1  0
 13 14  1  0
 13 49  1  6
 13 50  1  0
 14 15  1  0
 14 31  1  0
 14 51  1  6
 15 16  1  0
 15 22  1  0
 15 52  1  1
 16 17  2  0
 16 21  1  0
 17 18  1  0
 17 53  1  0
 18 19  2  0
 18 54  1  0
 19 20  1  0
 19 55  1  0
 20 21  2  0
 20 56  1  0
 21 57  1  0
 22 23  1  0
 22 58  1  0
 23 24  2  0
 23 30  1  0
 24 25  1  0
 24 26  1  0
 26 27  2  0
 26 59  1  0
 27 28  1  0
 27 29  1  0
 29 30  2  0
 29 60  1  0
 30 31  1  0
 31 32  1  0
 31 61  1  6
M  END
