CHEMBL1084677_1
     RDKit          3D

 61 64  0  0  1  0  0  0  0  0999 V2000
   14.1895   -7.0823   10.9861 C   0  0  2  0  0  0  0  0  0  0  0  0
   14.4478   -5.6033   10.6101 N   0  0  0  0  0  0  0  0  0  0  0  0
   15.6034   -5.4037    9.5981 C   0  0  1  0  0  0  0  0  0  0  0  0
   15.6828   -3.9138    9.1742 C   0  0  1  0  0  0  0  0  0  0  0  0
   14.1366   -3.3485    8.2072 S   0  0  1  0  0  0  0  0  0  0  0  0
   12.9585   -4.0267    8.7685 O   0  0  0  0  0  0  0  0  0  0  0  0
   14.1863   -1.8809    8.1082 O   0  0  0  0  0  0  0  0  0  0  0  0
   14.4004   -4.0312    6.5984 N   0  0  0  0  0  0  0  0  0  0  0  0
   14.7967   -3.0867    5.5291 C   0  0  1  0  0  0  0  0  0  0  0  0
   14.9388   -3.7316    4.1386 C   0  0  1  0  0  0  0  0  0  0  0  0
   15.1881   -5.2678    4.1774 C   0  0  1  0  0  0  0  0  0  0  0  0
   15.2202   -5.8858    2.7757 C   0  0  1  0  0  0  0  0  0  0  0  0
   14.0751   -5.3724    1.8611 C   0  0  1  0  0  0  0  0  0  0  0  0
   12.6846   -6.0220    2.1495 C   0  0  2  0  0  0  0  0  0  0  0  0
   12.7476   -7.5451    2.0242 C   0  0  0  0  0  0  0  0  0  0  0  0
   12.3947   -8.3583    3.1077 C   0  0  0  0  0  0  0  0  0  0  0  0
   12.4894   -9.7444    2.9966 C   0  0  0  0  0  0  0  0  0  0  0  0
   12.9213  -10.3233    1.8007 C   0  0  0  0  0  0  0  0  0  0  0  0
   13.2753   -9.5187    0.7166 C   0  0  0  0  0  0  0  0  0  0  0  0
   13.1889   -8.1339    0.8282 C   0  0  0  0  0  0  0  0  0  0  0  0
   11.6520   -5.4409    1.2738 N   0  0  0  0  0  0  0  0  0  0  0  0
   11.7361   -4.1113    0.8164 C   0  0  0  0  0  0  0  0  0  0  0  0
   10.7054   -3.6179    0.0060 C   0  0  0  0  0  0  0  0  0  0  0  0
   10.7662   -2.3141   -0.4886 C   0  0  0  0  0  0  0  0  0  0  0  0
   11.8650   -1.4950   -0.1862 C   0  0  0  0  0  0  0  0  0  0  0  0
   11.9501   -0.0746   -0.7463 C   0  0  1  0  0  0  0  0  0  0  0  0
   12.5532   -0.1215   -1.9381 F   0  0  0  0  0  0  0  0  0  0  0  0
   10.7205    0.4126   -0.9053 F   0  0  0  0  0  0  0  0  0  0  0  0
   12.6433    0.7400    0.0595 F   0  0  0  0  0  0  0  0  0  0  0  0
   12.8823   -1.9895    0.6365 C   0  0  0  0  0  0  0  0  0  0  0  0
   12.8422   -3.2985    1.1327 C   0  0  0  0  0  0  0  0  0  0  0  0
   13.9921   -3.8312    1.9709 C   0  0  1  0  0  0  0  0  0  0  0  0
   13.7951   -3.4402    3.3305 O   0  0  0  0  0  0  0  0  0  0  0  0
   13.3585   -7.1382   11.7047 H   0  0  0  0  0  0  0  0  0  0  0  0
   15.0961   -7.5089   11.4401 H   0  0  0  0  0  0  0  0  0  0  0  0
   13.9303   -7.6509   10.0808 H   0  0  0  0  0  0  0  0  0  0  0  0
   16.5546   -5.6991   10.0649 H   0  0  0  0  0  0  0  0  0  0  0  0
   15.4230   -6.0248    8.7084 H   0  0  0  0  0  0  0  0  0  0  0  0
   15.7727   -3.2819   10.0702 H   0  0  0  0  0  0  0  0  0  0  0  0
   16.5608   -3.7623    8.5292 H   0  0  0  0  0  0  0  0  0  0  0  0
   14.1238   -5.0651    6.3442 H   0  0  0  0  0  0  0  0  0  0  0  0
   14.0396   -2.2936    5.4412 H   0  0  0  0  0  0  0  0  0  0  0  0
   15.7700   -2.6385    5.7780 H   0  0  0  0  0  0  0  0  0  0  0  0
   15.7840   -3.2426    3.6322 H   0  0  0  0  0  0  0  0  0  0  0  0
   16.1548   -5.4703    4.6617 H   0  0  0  0  0  0  0  0  0  0  0  0
   14.3834   -5.7556    4.7470 H   0  0  0  0  0  0  0  0  0  0  0  0
   16.1745   -5.6383    2.2876 H   0  0  0  0  0  0  0  0  0  0  0  0
   15.1211   -6.9785    2.8543 H   0  0  0  0  0  0  0  0  0  0  0  0
   14.3321   -5.6684    0.8333 H   0  0  0  0  0  0  0  0  0  0  0  0
   12.3509   -5.7903    3.1717 H   0  0  0  0  0  0  0  0  0  0  0  0
   12.0460   -7.9190    4.0349 H   0  0  0  0  0  0  0  0  0  0  0  0
   12.2146  -10.3733    3.8327 H   0  0  0  0  0  0  0  0  0  0  0  0
   12.9933  -11.3981    1.7151 H   0  0  0  0  0  0  0  0  0  0  0  0
   13.6081   -9.9674   -0.2061 H   0  0  0  0  0  0  0  0  0  0  0  0
   13.4588   -7.5180   -0.0142 H   0  0  0  0  0  0  0  0  0  0  0  0
   10.7896   -6.0485    0.9622 H   0  0  0  0  0  0  0  0  0  0  0  0
    9.8596   -4.2394   -0.2405 H   0  0  0  0  0  0  0  0  0  0  0  0
    9.9620   -1.9507   -1.1129 H   0  0  0  0  0  0  0  0  0  0  0  0
   13.7343   -1.3660    0.8721 H   0  0  0  0  0  0  0  0  0  0  0  0
   14.9407   -3.3679    1.6620 H   0  0  0  0  0  0  0  0  0  0  0  0
   13.5412   -5.1767   10.1561 H   0  0  0  0  0  0  0  0  0  0  0  0
  1  2  1  0
  1 34  1  1
  1 35  1  0
  1 36  1  0
  2  3  1  0
  2 61  1  0
  3  4  1  0
  3 37  1  1
  3 38  1  0
  4  5  1  0
  4 39  1  1
  4 40  1  0
  5  6  2  0
  5  7  2  0
  5  8  1  6
  8  9  1  0
  8 41  1  0
  9 10  1  0
  9 42  1  6
  9 43  1  0
 10 11  1  0
 10 33  1  0
 10 44  1  6
 11 12  1  0
 11 45  1  1
 11 46  1  0
 12 13  1  0
 12 47  1  6
 12 48  1  0
 13 14  1  0
 13 32  1  0
 13 49  1  6
 14 15  1  0
 14 21  1  0
 14 50  1  1
 15 16  2  0
 15 20  1  0
 16 17  1  0
 16 51  1  0
 17 18  2  0
 17 52  1  0
 18 19  1  0
 18 53  1  0
 19 20  2  0
 19 54  1  0
 20 55  1  0
 21 22  1  0
 21 56  1  0
 22 23  2  0
 22 31  1  0
 23 24  1  0
 23 57  1  0
 24 25  2  0
 24 58  1  0
 25 26  1  0
 25 30  1  0
 26 27  1  6
 26 28  1  0
 26 29  1  0
 30 31  2  0
 30 59  1  0
 31 32  1  0
 32 33  1  0
 32 60  1  6
M  END
