CHEMBL1096002_1
     RDKit          3D

 51 54  0  0  1  0  0  0  0  0999 V2000
   14.9871   -6.3909    8.6367 O   0  0  0  0  0  0  0  0  0  0  0  0
   15.3567   -5.7670    7.4189 C   0  0  1  0  0  0  0  0  0  0  0  0
   15.2704   -4.2451    7.6175 C   0  0  1  0  0  0  0  0  0  0  0  0
   15.7775   -3.4007    6.4409 N   0  0  0  0  0  0  0  0  0  0  0  0
   14.6640   -3.0592    5.4371 C   0  0  1  0  0  0  0  0  0  0  0  0
   14.9631   -3.7418    4.1082 C   0  0  1  0  0  0  0  0  0  0  0  0
   15.0858   -5.2862    4.2286 C   0  0  1  0  0  0  0  0  0  0  0  0
   15.2212   -5.9357    2.8490 C   0  0  1  0  0  0  0  0  0  0  0  0
   14.1155   -5.4238    1.8888 C   0  0  1  0  0  0  0  0  0  0  0  0
   12.7126   -6.0439    2.1868 C   0  0  2  0  0  0  0  0  0  0  0  0
   12.7663   -7.5575    2.0402 C   0  0  0  0  0  0  0  0  0  0  0  0
   13.1071   -8.1137    0.7951 C   0  0  0  0  0  0  0  0  0  0  0  0
   13.1892   -9.4953    0.6479 C   0  0  0  0  0  0  0  0  0  0  0  0
   12.9286  -10.3198    1.7458 C   0  0  0  0  0  0  0  0  0  0  0  0
   12.5853   -9.7696    2.9827 C   0  0  0  0  0  0  0  0  0  0  0  0
   12.4955   -8.3842    3.1348 C   0  0  0  0  0  0  0  0  0  0  0  0
   11.6999   -5.5016    1.2851 N   0  0  0  0  0  0  0  0  0  0  0  0
   11.7701   -4.1684    0.8297 C   0  0  0  0  0  0  0  0  0  0  0  0
   10.7068   -3.6770    0.0683 C   0  0  0  0  0  0  0  0  0  0  0  0
    9.6701   -4.4705   -0.2050 F   0  0  0  0  0  0  0  0  0  0  0  0
   10.6956   -2.3729   -0.4063 C   0  0  0  0  0  0  0  0  0  0  0  0
   11.7860   -1.5431   -0.1279 C   0  0  0  0  0  0  0  0  0  0  0  0
   11.7985    0.0868   -0.7117 Cl  0  0  0  0  0  0  0  0  0  0  0  0
   12.8592   -2.0280    0.6263 C   0  0  0  0  0  0  0  0  0  0  0  0
   12.8809   -3.3471    1.1055 C   0  0  0  0  0  0  0  0  0  0  0  0
   14.0621   -3.8684    1.9145 C   0  0  1  0  0  0  0  0  0  0  0  0
   13.8926   -3.3877    3.2438 O   0  0  0  0  0  0  0  0  0  0  0  0
   14.9810   -7.4882    8.7128 H   0  0  0  0  0  0  0  0  0  0  0  0
   16.3844   -6.0574    7.1553 H   0  0  0  0  0  0  0  0  0  0  0  0
   14.6697   -6.0849    6.6208 H   0  0  0  0  0  0  0  0  0  0  0  0
   14.2218   -3.9555    7.7807 H   0  0  0  0  0  0  0  0  0  0  0  0
   15.8713   -3.9548    8.4920 H   0  0  0  0  0  0  0  0  0  0  0  0
   13.6982   -3.4143    5.8260 H   0  0  0  0  0  0  0  0  0  0  0  0
   14.6226   -1.9696    5.2920 H   0  0  0  0  0  0  0  0  0  0  0  0
   15.8974   -3.3613    3.6698 H   0  0  0  0  0  0  0  0  0  0  0  0
   15.9748   -5.5379    4.8255 H   0  0  0  0  0  0  0  0  0  0  0  0
   14.1879   -5.6881    4.7208 H   0  0  0  0  0  0  0  0  0  0  0  0
   16.2042   -5.6882    2.4221 H   0  0  0  0  0  0  0  0  0  0  0  0
   15.1284   -7.0274    2.9470 H   0  0  0  0  0  0  0  0  0  0  0  0
   14.3916   -5.7573    0.8776 H   0  0  0  0  0  0  0  0  0  0  0  0
   12.3783   -5.7793    3.2009 H   0  0  0  0  0  0  0  0  0  0  0  0
   13.3046   -7.4801   -0.0541 H   0  0  0  0  0  0  0  0  0  0  0  0
   13.4505   -9.9234   -0.3056 H   0  0  0  0  0  0  0  0  0  0  0  0
   12.9900  -11.3923    1.6381 H   0  0  0  0  0  0  0  0  0  0  0  0
   12.3776  -10.4108    3.8261 H   0  0  0  0  0  0  0  0  0  0  0  0
   12.2211   -7.9619    4.0878 H   0  0  0  0  0  0  0  0  0  0  0  0
   10.8655   -6.1354    0.9504 H   0  0  0  0  0  0  0  0  0  0  0  0
    9.8628   -2.0128   -0.9931 H   0  0  0  0  0  0  0  0  0  0  0  0
   13.6966   -1.3738    0.8314 H   0  0  0  0  0  0  0  0  0  0  0  0
   15.0169   -3.4611    1.5504 H   0  0  0  0  0  0  0  0  0  0  0  0
   16.1927   -2.4553    6.8202 H   0  0  0  0  0  0  0  0  0  0  0  0
  1  2  1  0
  1 28  1  0
  2  3  1  0
  2 29  1  6
  2 30  1  0
  3  4  1  0
  3 31  1  1
  3 32  1  0
  4  5  1  0
  4 51  1  0
  5  6  1  0
  5 33  1  1
  5 34  1  0
  6  7  1  0
  6 27  1  0
  6 35  1  6
  7  8  1  0
  7 36  1  1
  7 37  1  0
  8  9  1  0
  8 38  1  6
  8 39  1  0
  9 10  1  0
  9 26  1  0
  9 40  1  6
 10 11  1  0
 10 17  1  0
 10 41  1  1
 11 12  2  0
 11 16  1  0
 12 13  1  0
 12 42  1  0
 13 14  2  0
 13 43  1  0
 14 15  1  0
 14 44  1  0
 15 16  2  0
 15 45  1  0
 16 46  1  0
 17 18  1  0
 17 47  1  0
 18 19  2  0
 18 25  1  0
 19 20  1  0
 19 21  1  0
 21 22  2  0
 21 48  1  0
 22 23  1  0
 22 24  1  0
 24 25  2  0
 24 49  1  0
 25 26  1  0
 26 27  1  0
 26 50  1  6
M  END
