CHEMBL1084143_1
     RDKit          3D

 73 76  0  0  1  0  0  0  0  0999 V2000
   10.5067    0.5222   -0.8851 C   0  0  2  0  0  0  0  0  0  0  0  0
   11.9096   -0.0945   -0.7878 C   0  0  1  0  0  0  0  0  0  0  0  0
   12.8898    0.8676   -0.0896 C   0  0  2  0  0  0  0  0  0  0  0  0
   11.8487   -1.5097   -0.1933 C   0  0  0  0  0  0  0  0  0  0  0  0
   10.7669   -2.3568   -0.5023 C   0  0  0  0  0  0  0  0  0  0  0  0
   10.7157   -3.6477   -0.0017 C   0  0  0  0  0  0  0  0  0  0  0  0
   11.7498   -4.1291    0.8084 C   0  0  0  0  0  0  0  0  0  0  0  0
   12.8474   -3.3088    1.1270 C   0  0  0  0  0  0  0  0  0  0  0  0
   12.8714   -1.9955    0.6379 C   0  0  0  0  0  0  0  0  0  0  0  0
   13.9968   -3.8233    1.9828 C   0  0  1  0  0  0  0  0  0  0  0  0
   13.8112   -3.3374    3.3192 O   0  0  0  0  0  0  0  0  0  0  0  0
   14.9174   -3.6035    4.1877 C   0  0  1  0  0  0  0  0  0  0  0  0
   14.8233   -2.7420    5.4860 C   0  0  1  0  0  0  0  0  0  0  0  0
   13.9618   -3.2326    6.6005 N   0  0  0  0  0  0  0  0  0  0  0  0
   14.7545   -4.1085    7.9167 S   0  0  1  0  0  0  0  0  0  0  0  0
   14.7062   -5.5375    7.5826 O   0  0  0  0  0  0  0  0  0  0  0  0
   16.0341   -3.4348    8.1726 O   0  0  0  0  0  0  0  0  0  0  0  0
   13.6910   -3.8462    9.4618 C   0  0  1  0  0  0  0  0  0  0  0  0
   14.2419   -4.8128   10.5404 C   0  0  1  0  0  0  0  0  0  0  0  0
   13.2318   -5.1356   11.6622 C   0  0  1  0  0  0  0  0  0  0  0  0
   13.6399   -6.3872   12.4899 N   0  0  0  0  0  0  0  0  0  0  0  0
   14.4471   -7.4960   11.7521 C   0  0  2  0  0  0  0  0  0  0  0  0
   14.3837   -5.9830   13.7875 C   0  0  2  0  0  0  0  0  0  0  0  0
   15.0892   -5.1394    4.3405 C   0  0  1  0  0  0  0  0  0  0  0  0
   15.1713   -5.8463    2.9586 C   0  0  1  0  0  0  0  0  0  0  0  0
   14.0868   -5.3707    1.9390 C   0  0  1  0  0  0  0  0  0  0  0  0
   12.6858   -6.0275    2.1623 C   0  0  2  0  0  0  0  0  0  0  0  0
   12.7395   -7.5562    2.0262 C   0  0  0  0  0  0  0  0  0  0  0  0
   13.1805   -8.1408    0.8289 C   0  0  0  0  0  0  0  0  0  0  0  0
   13.2707   -9.5279    0.7060 C   0  0  0  0  0  0  0  0  0  0  0  0
   12.9213  -10.3370    1.7891 C   0  0  0  0  0  0  0  0  0  0  0  0
   12.4744   -9.7636    2.9831 C   0  0  0  0  0  0  0  0  0  0  0  0
   12.3844   -8.3750    3.1041 C   0  0  0  0  0  0  0  0  0  0  0  0
   11.6684   -5.4572    1.2679 N   0  0  0  0  0  0  0  0  0  0  0  0
   10.5794    1.5329   -1.3130 H   0  0  0  0  0  0  0  0  0  0  0  0
   10.0613    0.5803    0.1190 H   0  0  0  0  0  0  0  0  0  0  0  0
    9.8745   -0.1049   -1.5309 H   0  0  0  0  0  0  0  0  0  0  0  0
   12.3186   -0.2328   -1.7995 H   0  0  0  0  0  0  0  0  0  0  0  0
   12.8587    1.8479   -0.5875 H   0  0  0  0  0  0  0  0  0  0  0  0
   13.9093    0.4586   -0.1484 H   0  0  0  0  0  0  0  0  0  0  0  0
   12.6013    0.9829    0.9656 H   0  0  0  0  0  0  0  0  0  0  0  0
    9.9655   -2.0444   -1.1515 H   0  0  0  0  0  0  0  0  0  0  0  0
    9.8791   -4.2845   -0.2526 H   0  0  0  0  0  0  0  0  0  0  0  0
   13.7193   -1.3913    0.9032 H   0  0  0  0  0  0  0  0  0  0  0  0
   14.9556   -3.4021    1.6464 H   0  0  0  0  0  0  0  0  0  0  0  0
   15.8220   -3.2443    3.6752 H   0  0  0  0  0  0  0  0  0  0  0  0
   15.8246   -2.6358    5.9288 H   0  0  0  0  0  0  0  0  0  0  0  0
   14.4248   -1.7472    5.2379 H   0  0  0  0  0  0  0  0  0  0  0  0
   12.9131   -2.9076    6.6690 H   0  0  0  0  0  0  0  0  0  0  0  0
   13.7740   -2.7999    9.7908 H   0  0  0  0  0  0  0  0  0  0  0  0
   12.6409   -4.0746    9.2272 H   0  0  0  0  0  0  0  0  0  0  0  0
   14.5223   -5.7665   10.0693 H   0  0  0  0  0  0  0  0  0  0  0  0
   15.1266   -4.3650   11.0167 H   0  0  0  0  0  0  0  0  0  0  0  0
   13.1643   -4.2812   12.3518 H   0  0  0  0  0  0  0  0  0  0  0  0
   12.2431   -5.3295   11.2208 H   0  0  0  0  0  0  0  0  0  0  0  0
   13.9187   -7.7827   10.8309 H   0  0  0  0  0  0  0  0  0  0  0  0
   14.5460   -8.3745   12.4067 H   0  0  0  0  0  0  0  0  0  0  0  0
   15.4468   -7.1140   11.4977 H   0  0  0  0  0  0  0  0  0  0  0  0
   13.8132   -5.1999   14.3082 H   0  0  0  0  0  0  0  0  0  0  0  0
   15.3833   -5.6008   13.5332 H   0  0  0  0  0  0  0  0  0  0  0  0
   14.4825   -6.8614   14.4422 H   0  0  0  0  0  0  0  0  0  0  0  0
   16.0156   -5.3514    4.8945 H   0  0  0  0  0  0  0  0  0  0  0  0
   14.2305   -5.5515    4.8908 H   0  0  0  0  0  0  0  0  0  0  0  0
   16.1537   -5.6502    2.5042 H   0  0  0  0  0  0  0  0  0  0  0  0
   15.0392   -6.9301    3.0927 H   0  0  0  0  0  0  0  0  0  0  0  0
   14.4035   -5.6941    0.9364 H   0  0  0  0  0  0  0  0  0  0  0  0
   12.3325   -5.7839    3.1752 H   0  0  0  0  0  0  0  0  0  0  0  0
   13.4519   -7.5172   -0.0098 H   0  0  0  0  0  0  0  0  0  0  0  0
   13.6103   -9.9680   -0.2184 H   0  0  0  0  0  0  0  0  0  0  0  0
   12.9950  -11.4121    1.6961 H   0  0  0  0  0  0  0  0  0  0  0  0
   12.2108  -10.3954    3.8190 H   0  0  0  0  0  0  0  0  0  0  0  0
   12.0397   -7.9445    4.0318 H   0  0  0  0  0  0  0  0  0  0  0  0
   10.8165   -6.0717    0.9413 H   0  0  0  0  0  0  0  0  0  0  0  0
  1  2  1  0
  1 35  1  6
  1 36  1  0
  1 37  1  0
  2  3  1  0
  2  4  1  0
  2 38  1  6
  3 39  1  6
  3 40  1  0
  3 41  1  0
  4  5  2  0
  4  9  1  0
  5  6  1  0
  5 42  1  0
  6  7  2  0
  6 43  1  0
  7  8  1  0
  7 34  1  0
  8  9  2  0
  8 10  1  0
  9 44  1  0
 10 11  1  0
 10 26  1  0
 10 45  1  6
 11 12  1  0
 12 13  1  0
 12 24  1  0
 12 46  1  6
 13 14  1  0
 13 47  1  1
 13 48  1  0
 15 14  1  6
 14 49  1  0
 15 16  2  0
 15 17  2  0
 15 18  1  0
 18 19  1  0
 18 50  1  1
 18 51  1  0
 19 20  1  0
 19 52  1  6
 19 53  1  0
 20 21  1  0
 20 54  1  1
 20 55  1  0
 21 22  1  0
 21 23  1  0
 22 56  1  6
 22 57  1  0
 22 58  1  0
 23 59  1  1
 23 60  1  0
 23 61  1  0
 24 25  1  0
 24 62  1  1
 24 63  1  0
 25 26  1  0
 25 64  1  6
 25 65  1  0
 26 27  1  0
 26 66  1  6
 27 28  1  0
 27 34  1  0
 27 67  1  1
 28 29  2  0
 28 33  1  0
 29 30  1  0
 29 68  1  0
 30 31  2  0
 30 69  1  0
 31 32  1  0
 31 70  1  0
 32 33  2  0
 32 71  1  0
 33 72  1  0
 34 73  1  0
M  END
