15
     RDKit          3D

 45 47  0  0  1  0  0  0  0  0999 V2000
   32.4963   36.3592   36.8814 C   0  0  0  0  0  0  0  0  0  0  0  0
   31.7192   35.3502   37.4821 C   0  0  0  0  0  0  0  0  0  0  0  0
   31.1747   35.5669   38.7632 C   0  0  0  0  0  0  0  0  0  0  0  0
   31.3917   36.7759   39.4368 C   0  0  0  0  0  0  0  0  0  0  0  0
   32.1526   37.7844   38.8239 C   0  0  0  0  0  0  0  0  0  0  0  0
   32.7059   37.5953   37.5386 C   0  0  0  0  0  0  0  0  0  0  0  0
   33.4966   38.6621   36.8958 C   0  0  0  0  0  0  0  0  0  0  0  0
   33.0578   40.0027   36.9724 C   0  0  0  0  0  0  0  0  0  0  0  0
   33.7991   41.0531   36.3766 C   0  0  0  0  0  0  0  0  0  0  0  0
   33.6784   42.4683   36.2345 C   0  0  0  0  0  0  0  0  0  0  0  0
   32.6333   43.2451   36.7473 N   0  0  0  0  0  0  0  0  0  0  0  0
   34.6525   42.9735   35.5412 N   0  0  0  0  0  0  0  0  0  0  0  0
   35.4485   41.9201   35.2112 N   0  0  0  0  0  0  0  0  0  0  0  0
   34.9944   40.7088   35.6871 C   0  0  0  0  0  0  0  0  0  0  0  0
   35.4576   39.3801   35.5981 C   0  0  0  0  0  0  0  0  0  0  0  0
   34.6958   38.3596   36.2099 C   0  0  0  0  0  0  0  0  0  0  0  0
   30.3533   34.5918   39.3688 N   0  0  0  0  0  0  0  0  0  0  0  0
   30.7975   33.4627   39.9621 C   0  0  0  0  0  0  0  0  0  0  0  0
   30.0379   32.5046   40.1671 O   0  0  0  0  0  0  0  0  0  0  0  0
   32.1270   33.4638   40.2466 N   0  0  0  0  0  0  0  0  0  0  0  0
   32.9796   32.3784   40.7944 C   0  0  2  0  0  0  0  0  0  0  0  0
   34.3426   33.0240   41.1755 C   0  0  2  0  0  0  0  0  0  0  0  0
   33.2170   31.2832   39.7128 C   0  0  1  0  0  0  0  0  0  0  0  0
   32.3486   31.7500   42.0673 C   0  0  1  0  0  0  0  0  0  0  0  0
   32.8999   36.2000   35.8911 H   0  0  0  0  0  0  0  0  0  0  0  0
   31.5432   34.4206   36.9521 H   0  0  0  0  0  0  0  0  0  0  0  0
   30.9592   36.9484   40.4087 H   0  0  0  0  0  0  0  0  0  0  0  0
   32.3067   38.7167   39.3499 H   0  0  0  0  0  0  0  0  0  0  0  0
   32.1391   40.2432   37.4804 H   0  0  0  0  0  0  0  0  0  0  0  0
   31.8368   42.7724   37.1701 H   0  0  0  0  0  0  0  0  0  0  0  0
   32.4554   44.1691   36.3625 H   0  0  0  0  0  0  0  0  0  0  0  0
   36.2922   42.0870   34.6657 H   0  0  0  0  0  0  0  0  0  0  0  0
   36.3631   39.1423   35.0706 H   0  0  0  0  0  0  0  0  0  0  0  0
   35.0402   37.3398   36.1489 H   0  0  0  0  0  0  0  0  0  0  0  0
   29.3594   34.6802   39.1831 H   0  0  0  0  0  0  0  0  0  0  0  0
   32.6197   34.3078   39.9729 H   0  0  0  0  0  0  0  0  0  0  0  0
   35.0379   32.2838   41.5656 H   0  0  0  0  0  0  0  0  0  0  0  0
   34.2216   33.7936   41.9326 H   0  0  0  0  0  0  0  0  0  0  0  0
   34.8113   33.4873   40.3075 H   0  0  0  0  0  0  0  0  0  0  0  0
   32.2810   30.8014   39.4316 H   0  0  0  0  0  0  0  0  0  0  0  0
   33.6639   31.6999   38.8105 H   0  0  0  0  0  0  0  0  0  0  0  0
   33.8740   30.5024   40.0888 H   0  0  0  0  0  0  0  0  0  0  0  0
   31.4273   31.2086   41.8490 H   0  0  0  0  0  0  0  0  0  0  0  0
   33.0311   31.0447   42.5387 H   0  0  0  0  0  0  0  0  0  0  0  0
   32.1195   32.5152   42.8110 H   0  0  0  0  0  0  0  0  0  0  0  0
  1  2  1  0
  1  6  2  0
  1 25  1  0
  2  3  2  0
  2 26  1  0
  3  4  1  0
  3 17  1  0
  4  5  2  0
  4 27  1  0
  5  6  1  0
  5 28  1  0
  6  7  1  0
  7  8  2  0
  7 16  1  0
  8  9  1  0
  8 29  1  0
  9 10  1  0
  9 14  2  0
 10 11  1  0
 10 12  2  0
 11 30  1  0
 11 31  1  0
 12 13  1  0
 13 14  1  0
 13 32  1  0
 14 15  1  0
 15 16  2  0
 15 33  1  0
 16 34  1  0
 17 18  1  0
 17 35  1  0
 18 19  2  0
 18 20  1  0
 21 20  1  6
 20 36  1  0
 21 22  1  0
 21 23  1  0
 21 24  1  0
 22 37  1  1
 22 38  1  0
 22 39  1  0
 23 40  1  6
 23 41  1  0
 23 42  1  0
 24 43  1  6
 24 44  1  0
 24 45  1  0
M  END
