21
     RDKit          3D

 47 49  0  0  1  0  0  0  0  0999 V2000
   29.6972   33.2872   38.8237 O   0  0  0  0  0  0  0  0  0  0  0  0
   32.4951   36.3314   36.9039 C   0  0  0  0  0  0  0  0  0  0  0  0
   29.1335   35.1308   40.4455 O   0  0  0  0  0  0  0  0  0  0  0  0
   31.7137   35.3169   37.5199 C   0  0  0  0  0  0  0  0  0  0  0  0
   33.6742   34.1368   40.5800 C   0  0  2  0  0  0  0  0  0  0  0  0
   31.2459   33.7357   40.9194 N   0  0  0  0  0  0  0  0  0  0  0  0
   31.1644   35.5555   38.8030 C   0  0  0  0  0  0  0  0  0  0  0  0
   32.5883   32.1003   39.5360 C   0  0  1  0  0  0  0  0  0  0  0  0
   32.8456   32.2900   42.0357 C   0  0  1  0  0  0  0  0  0  0  0  0
   32.5709   33.0737   40.7332 C   0  0  1  0  0  0  0  0  0  0  0  0
   30.1530   34.3677   39.7043 S   0  0  1  0  0  0  0  0  0  0  0  0
   31.3957   36.7796   39.4550 C   0  0  0  0  0  0  0  0  0  0  0  0
   32.1527   37.7845   38.8339 C   0  0  0  0  0  0  0  0  0  0  0  0
   32.7057   37.5840   37.5466 C   0  0  0  0  0  0  0  0  0  0  0  0
   33.4683   38.6753   36.9107 C   0  0  0  0  0  0  0  0  0  0  0  0
   33.0042   40.0160   37.0229 C   0  0  0  0  0  0  0  0  0  0  0  0
   33.6863   41.1031   36.4253 C   0  0  0  0  0  0  0  0  0  0  0  0
   33.5378   42.5212   36.3032 C   0  0  0  0  0  0  0  0  0  0  0  0
   32.4922   43.2777   36.8229 N   0  0  0  0  0  0  0  0  0  0  0  0
   34.4957   43.0769   35.6175 N   0  0  0  0  0  0  0  0  0  0  0  0
   35.2950   42.0500   35.2224 N   0  0  0  0  0  0  0  0  0  0  0  0
   34.8644   40.8137   35.6995 C   0  0  0  0  0  0  0  0  0  0  0  0
   35.3296   39.5001   35.5743 C   0  0  0  0  0  0  0  0  0  0  0  0
   34.6555   38.4206   36.1861 C   0  0  0  0  0  0  0  0  0  0  0  0
   36.5615   39.2923   34.7893 C   0  0  1  0  0  0  0  0  0  0  0  0
   32.9032   36.1589   35.9184 H   0  0  0  0  0  0  0  0  0  0  0  0
   31.5362   34.3784   37.0150 H   0  0  0  0  0  0  0  0  0  0  0  0
   34.6585   33.6678   40.5476 H   0  0  0  0  0  0  0  0  0  0  0  0
   33.6636   34.8134   41.4340 H   0  0  0  0  0  0  0  0  0  0  0  0
   33.5687   34.7124   39.6629 H   0  0  0  0  0  0  0  0  0  0  0  0
   31.2147   34.2946   41.7740 H   0  0  0  0  0  0  0  0  0  0  0  0
   31.8093   31.3439   39.6293 H   0  0  0  0  0  0  0  0  0  0  0  0
   32.4576   32.6204   38.5887 H   0  0  0  0  0  0  0  0  0  0  0  0
   33.5379   31.5718   39.4704 H   0  0  0  0  0  0  0  0  0  0  0  0
   32.0660   31.5529   42.2328 H   0  0  0  0  0  0  0  0  0  0  0  0
   33.7954   31.7564   41.9900 H   0  0  0  0  0  0  0  0  0  0  0  0
   32.8948   32.9599   42.8919 H   0  0  0  0  0  0  0  0  0  0  0  0
   30.9675   36.9653   40.4231 H   0  0  0  0  0  0  0  0  0  0  0  0
   32.3047   38.7194   39.3539 H   0  0  0  0  0  0  0  0  0  0  0  0
   32.0957   40.2308   37.5652 H   0  0  0  0  0  0  0  0  0  0  0  0
   31.6822   42.7922   37.2138 H   0  0  0  0  0  0  0  0  0  0  0  0
   32.3214   44.2016   36.4362 H   0  0  0  0  0  0  0  0  0  0  0  0
   36.1379   42.2332   34.6768 H   0  0  0  0  0  0  0  0  0  0  0  0
   35.0346   37.4140   36.0866 H   0  0  0  0  0  0  0  0  0  0  0  0
   37.2954   39.1209   35.5491 H   0  0  0  0  0  0  0  0  0  0  0  0
   36.4941   38.4456   34.1073 H   0  0  0  0  0  0  0  0  0  0  0  0
   36.8985   40.1879   34.2751 H   0  0  0  0  0  0  0  0  0  0  0  0
  1 11  2  0
  2  4  1  0
  2 14  2  0
  2 26  1  0
  3 11  2  0
  4  7  2  0
  4 27  1  0
  5 10  1  0
  5 28  1  6
  5 29  1  0
  5 30  1  0
 10  6  1  1
 11  6  1  1
  6 31  1  0
  7 11  1  0
  7 12  1  0
  8 10  1  0
  8 32  1  1
  8 33  1  0
  8 34  1  0
  9 10  1  0
  9 35  1  1
  9 36  1  0
  9 37  1  0
 12 13  2  0
 12 38  1  0
 13 14  1  0
 13 39  1  0
 14 15  1  0
 15 16  2  0
 15 24  1  0
 16 17  1  0
 16 40  1  0
 17 18  1  0
 17 22  2  0
 18 19  1  0
 18 20  2  0
 19 41  1  0
 19 42  1  0
 20 21  1  0
 21 22  1  0
 21 43  1  0
 22 23  1  0
 23 24  2  0
 23 25  1  0
 24 44  1  0
 25 45  1  1
 25 46  1  0
 25 47  1  0
M  END
