12
     RDKit          3D

 44 46  0  0  1  0  0  0  0  0999 V2000
   32.5060   36.3680   37.3772 C   0  0  0  0  0  0  0  0  0  0  0  0
   31.6775   35.6302   38.2549 C   0  0  0  0  0  0  0  0  0  0  0  0
   30.9904   36.1912   39.3234 C   0  0  0  0  0  0  0  0  0  0  0  0
   31.2398   37.5051   39.6298 C   0  0  0  0  0  0  0  0  0  0  0  0
   32.1247   38.2541   38.8660 C   0  0  0  0  0  0  0  0  0  0  0  0
   32.7104   37.7308   37.6876 C   0  0  0  0  0  0  0  0  0  0  0  0
   33.4962   38.6791   36.8988 C   0  0  0  0  0  0  0  0  0  0  0  0
   33.0526   40.0218   36.9199 C   0  0  0  0  0  0  0  0  0  0  0  0
   33.8010   41.0531   36.3557 C   0  0  0  0  0  0  0  0  0  0  0  0
   33.6690   42.4596   36.2210 C   0  0  0  0  0  0  0  0  0  0  0  0
   32.6018   43.2186   36.7066 N   0  0  0  0  0  0  0  0  0  0  0  0
   34.6513   42.9692   35.5429 N   0  0  0  0  0  0  0  0  0  0  0  0
   35.4569   41.9213   35.2193 N   0  0  0  0  0  0  0  0  0  0  0  0
   34.9998   40.7056   35.6835 C   0  0  0  0  0  0  0  0  0  0  0  0
   35.4535   39.3767   35.6006 C   0  0  0  0  0  0  0  0  0  0  0  0
   34.6932   38.3574   36.2148 C   0  0  0  0  0  0  0  0  0  0  0  0
   31.5086   33.9187   38.2151 S   0  0  2  0  0  0  0  0  0  0  0  0
   31.6958   33.5270   36.8230 O   0  0  0  0  0  0  0  0  0  0  0  0
   30.2827   33.5224   38.9403 O   0  0  0  0  0  0  0  0  0  0  0  0
   32.9103   33.3488   39.1036 N   0  0  0  0  0  0  0  0  0  0  0  0
   32.9445   32.9052   40.5354 C   0  0  2  0  0  0  0  0  0  0  0  0
   32.1542   31.5716   40.6851 C   0  0  2  0  0  0  0  0  0  0  0  0
   32.3618   34.0028   41.4735 C   0  0  1  0  0  0  0  0  0  0  0  0
   34.4273   32.6523   40.9337 C   0  0  1  0  0  0  0  0  0  0  0  0
   32.9887   35.9007   36.5312 H   0  0  0  0  0  0  0  0  0  0  0  0
   30.3250   35.6321   39.9621 H   0  0  0  0  0  0  0  0  0  0  0  0
   30.7172   37.9198   40.4562 H   0  0  0  0  0  0  0  0  0  0  0  0
   32.3041   39.2653   39.1951 H   0  0  0  0  0  0  0  0  0  0  0  0
   32.1158   40.3061   37.3754 H   0  0  0  0  0  0  0  0  0  0  0  0
   31.7976   42.7460   37.1149 H   0  0  0  0  0  0  0  0  0  0  0  0
   32.4288   44.1389   36.3139 H   0  0  0  0  0  0  0  0  0  0  0  0
   36.3058   42.0880   34.6809 H   0  0  0  0  0  0  0  0  0  0  0  0
   36.3701   39.1358   35.0808 H   0  0  0  0  0  0  0  0  0  0  0  0
   35.0460   37.3367   36.1882 H   0  0  0  0  0  0  0  0  0  0  0  0
   33.7455   33.1927   38.5273 H   0  0  0  0  0  0  0  0  0  0  0  0
   32.2519   31.1671   41.6930 H   0  0  0  0  0  0  0  0  0  0  0  0
   32.5180   30.8144   39.9902 H   0  0  0  0  0  0  0  0  0  0  0  0
   31.0901   31.7006   40.4986 H   0  0  0  0  0  0  0  0  0  0  0  0
   32.8431   34.9676   41.3108 H   0  0  0  0  0  0  0  0  0  0  0  0
   31.2898   34.1270   41.3325 H   0  0  0  0  0  0  0  0  0  0  0  0
   32.5090   33.7373   42.5211 H   0  0  0  0  0  0  0  0  0  0  0  0
   35.0284   33.5530   40.8186 H   0  0  0  0  0  0  0  0  0  0  0  0
   34.4981   32.3453   41.9776 H   0  0  0  0  0  0  0  0  0  0  0  0
   34.8836   31.8632   40.3340 H   0  0  0  0  0  0  0  0  0  0  0  0
  1  2  1  0
  1  6  2  0
  1 25  1  0
  2  3  2  0
  2 17  1  0
  3  4  1  0
  3 26  1  0
  4  5  2  0
  4 27  1  0
  5  6  1  0
  5 28  1  0
  6  7  1  0
  7  8  2  0
  7 16  1  0
  8  9  1  0
  8 29  1  0
  9 10  1  0
  9 14  2  0
 10 11  1  0
 10 12  2  0
 11 30  1  0
 11 31  1  0
 12 13  1  0
 13 14  1  0
 13 32  1  0
 14 15  1  0
 15 16  2  0
 15 33  1  0
 16 34  1  0
 17 18  2  0
 17 19  2  0
 17 20  1  1
 21 20  1  6
 20 35  1  0
 21 22  1  0
 21 23  1  0
 21 24  1  0
 22 36  1  1
 22 37  1  0
 22 38  1  0
 23 39  1  6
 23 40  1  0
 23 41  1  0
 24 42  1  1
 24 43  1  0
 24 44  1  0
M  END
