13_3E64
     RDKit          3D

 44 46  0  0  1  0  0  0  0  0999 V2000
   29.0830   34.8709   40.1973 O   0  0  0  0  0  0  0  0  0  0  0  0
   32.4791   36.3749   36.8779 C   0  0  0  0  0  0  0  0  0  0  0  0
   30.0800   33.1279   38.6217 O   0  0  0  0  0  0  0  0  0  0  0  0
   31.7230   35.3518   37.4835 C   0  0  0  0  0  0  0  0  0  0  0  0
   32.8405   32.3326   42.0582 C   0  0  1  0  0  0  0  0  0  0  0  0
   31.2742   33.7353   40.8605 N   0  0  0  0  0  0  0  0  0  0  0  0
   31.1890   35.5505   38.7698 C   0  0  0  0  0  0  0  0  0  0  0  0
   32.6650   32.0959   39.5767 C   0  0  1  0  0  0  0  0  0  0  0  0
   33.6905   34.1765   40.5836 C   0  0  1  0  0  0  0  0  0  0  0  0
   32.6033   33.0977   40.7445 C   0  0  2  0  0  0  0  0  0  0  0  0
   30.2502   34.2468   39.5598 S   0  0  2  0  0  0  0  0  0  0  0  0
   31.3999   36.7638   39.4494 C   0  0  0  0  0  0  0  0  0  0  0  0
   32.1573   37.7821   38.8364 C   0  0  0  0  0  0  0  0  0  0  0  0
   32.7072   37.6006   37.5458 C   0  0  0  0  0  0  0  0  0  0  0  0
   33.4971   38.6696   36.9083 C   0  0  0  0  0  0  0  0  0  0  0  0
   33.0674   40.0163   36.9759 C   0  0  0  0  0  0  0  0  0  0  0  0
   33.8047   41.0591   36.3719 C   0  0  0  0  0  0  0  0  0  0  0  0
   33.7001   42.4787   36.2271 C   0  0  0  0  0  0  0  0  0  0  0  0
   32.6742   43.2700   36.7366 N   0  0  0  0  0  0  0  0  0  0  0  0
   34.6912   42.9913   35.5473 N   0  0  0  0  0  0  0  0  0  0  0  0
   35.4753   41.9304   35.2211 N   0  0  0  0  0  0  0  0  0  0  0  0
   35.0010   40.7150   35.6886 C   0  0  0  0  0  0  0  0  0  0  0  0
   35.4525   39.3870   35.6048 C   0  0  0  0  0  0  0  0  0  0  0  0
   34.6951   38.3693   36.2171 C   0  0  0  0  0  0  0  0  0  0  0  0
   32.8758   36.2180   35.8853 H   0  0  0  0  0  0  0  0  0  0  0  0
   31.5490   34.4175   36.9696 H   0  0  0  0  0  0  0  0  0  0  0  0
   33.8086   31.8299   42.0593 H   0  0  0  0  0  0  0  0  0  0  0  0
   32.8180   32.9958   42.9237 H   0  0  0  0  0  0  0  0  0  0  0  0
   32.0786   31.5667   42.2131 H   0  0  0  0  0  0  0  0  0  0  0  0
   31.1713   34.3550   41.6611 H   0  0  0  0  0  0  0  0  0  0  0  0
   31.8600   31.3617   39.6363 H   0  0  0  0  0  0  0  0  0  0  0  0
   32.5922   32.5906   38.6084 H   0  0  0  0  0  0  0  0  0  0  0  0
   33.6062   31.5452   39.5764 H   0  0  0  0  0  0  0  0  0  0  0  0
   34.6871   33.7351   40.6261 H   0  0  0  0  0  0  0  0  0  0  0  0
   33.6212   34.6942   39.6281 H   0  0  0  0  0  0  0  0  0  0  0  0
   33.6362   34.9270   41.3731 H   0  0  0  0  0  0  0  0  0  0  0  0
   30.9776   36.9037   40.4336 H   0  0  0  0  0  0  0  0  0  0  0  0
   32.3224   38.7087   39.3673 H   0  0  0  0  0  0  0  0  0  0  0  0
   32.1523   40.2706   37.4868 H   0  0  0  0  0  0  0  0  0  0  0  0
   32.6469   44.2544   36.5181 H   0  0  0  0  0  0  0  0  0  0  0  0
   31.8573   42.8664   37.1664 H   0  0  0  0  0  0  0  0  0  0  0  0
   36.3181   42.0712   34.6846 H   0  0  0  0  0  0  0  0  0  0  0  0
   36.3659   39.1477   35.0818 H   0  0  0  0  0  0  0  0  0  0  0  0
   35.0420   37.3470   36.1624 H   0  0  0  0  0  0  0  0  0  0  0  0
  1 11  2  0
  2  4  1  0
  2 14  2  0
  2 25  1  0
  3 11  2  0
  4  7  2  0
  4 26  1  0
  5 10  1  0
  5 27  1  6
  5 28  1  0
  5 29  1  0
 10  6  1  1
 11  6  1  1
  6 30  1  0
  7 11  1  0
  7 12  1  0
  8 10  1  0
  8 31  1  1
  8 32  1  0
  8 33  1  0
  9 10  1  0
  9 34  1  6
  9 35  1  0
  9 36  1  0
 12 13  2  0
 12 37  1  0
 13 14  1  0
 13 38  1  0
 14 15  1  0
 15 16  2  0
 15 24  1  0
 16 17  1  0
 16 39  1  0
 17 18  1  0
 17 22  2  0
 18 19  1  0
 18 20  2  0
 19 40  1  0
 19 41  1  0
 20 21  1  0
 21 22  1  0
 21 42  1  0
 22 23  1  0
 23 24  2  0
 23 43  1  0
 24 44  1  0
M  END
