3
     RDKit          3D

 42 45  0  0  1  0  0  0  0  0999 V2000
   18.7905   -2.3380   -0.7064 C   0  0  1  0  0  0  0  0  0  0  0  0
   16.5171   -3.0307   -1.5786 C   0  0  1  0  0  0  0  0  0  0  0  0
   18.0081   -3.4144   -1.4765 C   0  0  2  0  0  0  0  0  0  0  0  0
   18.2209   -4.8140   -0.8207 C   0  0  1  0  0  0  0  0  0  0  0  0
   18.6413   -3.6096   -2.8456 C   0  0  0  0  0  0  0  0  0  0  0  0
   18.6085   -2.7607   -3.9493 C   0  0  0  0  0  0  0  0  0  0  0  0
   19.3298   -3.1216   -5.0998 C   0  0  0  0  0  0  0  0  0  0  0  0
   19.3040   -2.2180   -6.3066 C   0  0  0  0  0  0  0  0  0  0  0  0
   20.3420   -1.6674   -6.6704 O   0  0  0  0  0  0  0  0  0  0  0  0
   18.1271   -2.0795   -6.9527 N   0  0  0  0  0  0  0  0  0  0  0  0
   17.9369   -1.1747   -8.0908 C   0  0  1  0  0  0  0  0  0  0  0  0
   16.7801   -1.8132   -8.8111 C   0  0  0  0  0  0  0  0  0  0  0  0
   16.3121   -1.5604  -10.0965 C   0  0  0  0  0  0  0  0  0  0  0  0
   15.2519   -2.3388  -10.5755 C   0  0  0  0  0  0  0  0  0  0  0  0
   14.6932   -3.3524   -9.7855 C   0  0  0  0  0  0  0  0  0  0  0  0
   15.1811   -3.5934   -8.4975 C   0  0  0  0  0  0  0  0  0  0  0  0
   16.2153   -2.7932   -8.0252 C   0  0  0  0  0  0  0  0  0  0  0  0
   16.9131   -2.8603   -6.6954 C   0  0  1  0  0  0  0  0  0  0  0  0
   20.0744   -4.3212   -5.1041 C   0  0  0  0  0  0  0  0  0  0  0  0
   20.7895   -4.7057   -6.2038 O   0  0  0  0  0  0  0  0  0  0  0  0
   20.0906   -5.1601   -3.9854 C   0  0  0  0  0  0  0  0  0  0  0  0
   19.3581   -4.7818   -2.8708 C   0  0  0  0  0  0  0  0  0  0  0  0
   19.1980   -5.4579   -1.6781 O   0  0  0  0  0  0  0  0  0  0  0  0
   19.8340   -2.6207   -0.5626 H   0  0  0  0  0  0  0  0  0  0  0  0
   18.7822   -1.3973   -1.2537 H   0  0  0  0  0  0  0  0  0  0  0  0
   18.3595   -2.1556    0.2775 H   0  0  0  0  0  0  0  0  0  0  0  0
   15.9404   -3.7785   -2.1217 H   0  0  0  0  0  0  0  0  0  0  0  0
   16.0698   -2.9210   -0.5922 H   0  0  0  0  0  0  0  0  0  0  0  0
   16.3806   -2.0794   -2.0947 H   0  0  0  0  0  0  0  0  0  0  0  0
   18.6015   -4.7448    0.1976 H   0  0  0  0  0  0  0  0  0  0  0  0
   17.3081   -5.4054   -0.8010 H   0  0  0  0  0  0  0  0  0  0  0  0
   18.0466   -1.8380   -3.9070 H   0  0  0  0  0  0  0  0  0  0  0  0
   17.6768   -0.1712   -7.7558 H   0  0  0  0  0  0  0  0  0  0  0  0
   18.8161   -1.1287   -8.7337 H   0  0  0  0  0  0  0  0  0  0  0  0
   16.7543   -0.7870  -10.7053 H   0  0  0  0  0  0  0  0  0  0  0  0
   14.8593   -2.1695  -11.5630 H   0  0  0  0  0  0  0  0  0  0  0  0
   13.8855   -3.9539  -10.1753 H   0  0  0  0  0  0  0  0  0  0  0  0
   14.7700   -4.3814   -7.8875 H   0  0  0  0  0  0  0  0  0  0  0  0
   17.1223   -3.8931   -6.4130 H   0  0  0  0  0  0  0  0  0  0  0  0
   16.3031   -2.3879   -5.9252 H   0  0  0  0  0  0  0  0  0  0  0  0
   21.4094   -5.4224   -6.0144 H   0  0  0  0  0  0  0  0  0  0  0  0
   20.6443   -6.0864   -3.9860 H   0  0  0  0  0  0  0  0  0  0  0  0
  1  3  1  0
  1 24  1  1
  1 25  1  0
  1 26  1  0
  2  3  1  0
  2 27  1  6
  2 28  1  0
  2 29  1  0
  3  4  1  0
  3  5  1  6
  4 23  1  0
  4 30  1  1
  4 31  1  0
  5  6  1  0
  5 22  2  0
  6  7  2  0
  6 32  1  0
  7  8  1  0
  7 19  1  0
  8  9  2  0
  8 10  1  0
 10 11  1  0
 10 18  1  0
 11 12  1  0
 11 33  1  1
 11 34  1  0
 12 13  1  0
 12 17  2  0
 13 14  2  0
 13 35  1  0
 14 15  1  0
 14 36  1  0
 15 16  2  0
 15 37  1  0
 16 17  1  0
 16 38  1  0
 17 18  1  0
 18 39  1  1
 18 40  1  0
 19 20  1  0
 19 21  2  0
 20 41  1  0
 21 22  1  0
 21 42  1  0
 22 23  1  0
M  END
