2
     RDKit          3D

 44 46  0  0  1  0  0  0  0  0999 V2000
   16.6777   -3.2728   -1.6922 C   0  0  1  0  0  0  0  0  0  0  0  0
   18.1655   -3.6190   -1.4833 C   0  0  2  0  0  0  0  0  0  0  0  0
   18.9162   -2.4767   -0.7819 C   0  0  1  0  0  0  0  0  0  0  0  0
   18.8794   -4.0149   -2.7826 C   0  0  0  0  0  0  0  0  0  0  0  0
   18.7414   -3.2011   -3.9164 C   0  0  0  0  0  0  0  0  0  0  0  0
   19.3997   -3.5063   -5.1105 C   0  0  0  0  0  0  0  0  0  0  0  0
   19.2355   -2.6114   -6.3112 C   0  0  0  0  0  0  0  0  0  0  0  0
   20.1894   -1.9283   -6.6812 O   0  0  0  0  0  0  0  0  0  0  0  0
   18.0456   -2.6327   -6.9499 N   0  0  0  0  0  0  0  0  0  0  0  0
   17.7610   -1.7776   -8.1057 C   0  0  1  0  0  0  0  0  0  0  0  0
   16.6081   -2.4884   -8.7602 C   0  0  0  0  0  0  0  0  0  0  0  0
   16.0649   -2.2733  -10.0237 C   0  0  0  0  0  0  0  0  0  0  0  0
   14.9980   -3.0837  -10.4301 C   0  0  0  0  0  0  0  0  0  0  0  0
   14.5028   -4.0865   -9.5837 C   0  0  0  0  0  0  0  0  0  0  0  0
   15.0694   -4.2953   -8.3199 C   0  0  0  0  0  0  0  0  0  0  0  0
   16.1226   -3.4743   -7.9281 C   0  0  0  0  0  0  0  0  0  0  0  0
   16.9085   -3.5107   -6.6437 C   0  0  1  0  0  0  0  0  0  0  0  0
   20.2294   -4.6300   -5.1569 C   0  0  0  0  0  0  0  0  0  0  0  0
   20.9173   -4.9694   -6.2888 O   0  0  0  0  0  0  0  0  0  0  0  0
   20.3776   -5.4389   -4.0373 C   0  0  0  0  0  0  0  0  0  0  0  0
   19.7038   -5.1541   -2.8407 C   0  0  0  0  0  0  0  0  0  0  0  0
   19.8096   -5.9537   -1.7170 O   0  0  0  0  0  0  0  0  0  0  0  0
   20.7380   -7.0335   -1.7180 C   0  0  1  0  0  0  0  0  0  0  0  0
   16.1364   -4.1023   -2.1430 H   0  0  0  0  0  0  0  0  0  0  0  0
   16.1965   -3.0479   -0.7420 H   0  0  0  0  0  0  0  0  0  0  0  0
   16.5358   -2.4018   -2.3310 H   0  0  0  0  0  0  0  0  0  0  0  0
   18.1758   -4.4696   -0.8011 H   0  0  0  0  0  0  0  0  0  0  0  0
   19.9521   -2.7443   -0.5760 H   0  0  0  0  0  0  0  0  0  0  0  0
   18.9213   -1.5828   -1.4005 H   0  0  0  0  0  0  0  0  0  0  0  0
   18.4503   -2.2076    0.1641 H   0  0  0  0  0  0  0  0  0  0  0  0
   18.1291   -2.3127   -3.8686 H   0  0  0  0  0  0  0  0  0  0  0  0
   17.4620   -0.7797   -7.7855 H   0  0  0  0  0  0  0  0  0  0  0  0
   18.6139   -1.7006   -8.7801 H   0  0  0  0  0  0  0  0  0  0  0  0
   16.4499   -1.4977  -10.6690 H   0  0  0  0  0  0  0  0  0  0  0  0
   14.5507   -2.9381  -11.4021 H   0  0  0  0  0  0  0  0  0  0  0  0
   13.6804   -4.7054   -9.9112 H   0  0  0  0  0  0  0  0  0  0  0  0
   14.7004   -5.0723   -7.6675 H   0  0  0  0  0  0  0  0  0  0  0  0
   17.2217   -4.5270   -6.4038 H   0  0  0  0  0  0  0  0  0  0  0  0
   16.3106   -3.1151   -5.8230 H   0  0  0  0  0  0  0  0  0  0  0  0
   21.5930   -5.6408   -6.1253 H   0  0  0  0  0  0  0  0  0  0  0  0
   21.0240   -6.2975   -4.1191 H   0  0  0  0  0  0  0  0  0  0  0  0
   20.6623   -7.5777   -0.7809 H   0  0  0  0  0  0  0  0  0  0  0  0
   20.5338   -7.7393   -2.5184 H   0  0  0  0  0  0  0  0  0  0  0  0
   21.7642   -6.6805   -1.8221 H   0  0  0  0  0  0  0  0  0  0  0  0
  1  2  1  0
  1 24  1  6
  1 25  1  0
  1 26  1  0
  2  3  1  0
  2  4  1  0
  2 27  1  1
  3 28  1  1
  3 29  1  0
  3 30  1  0
  4  5  1  0
  4 21  2  0
  5  6  2  0
  5 31  1  0
  6  7  1  0
  6 18  1  0
  7  8  2  0
  7  9  1  0
  9 10  1  0
  9 17  1  0
 10 11  1  0
 10 32  1  1
 10 33  1  0
 11 12  1  0
 11 16  2  0
 12 13  2  0
 12 34  1  0
 13 14  1  0
 13 35  1  0
 14 15  2  0
 14 36  1  0
 15 16  1  0
 15 37  1  0
 16 17  1  0
 17 38  1  1
 17 39  1  0
 18 19  1  0
 18 20  2  0
 19 40  1  0
 20 21  1  0
 20 41  1  0
 21 22  1  0
 22 23  1  0
 23 42  1  1
 23 43  1  0
 23 44  1  0
M  END
