61a
     RDKit          3D

 58 61  0  0  1  0  0  0  0  0999 V2000
   13.4910   13.6830   24.2620 C   0  0  0  0  0  0  0  0  0  0  0  0
   13.0870   11.3290   24.2570 C   0  0  0  0  0  0  0  0  0  0  0  0
   12.0450   12.1130   18.7650 C   0  0  0  0  0  0  0  0  0  0  0  0
   13.4920   13.7250   22.8780 C   0  0  0  0  0  0  0  0  0  0  0  0
    9.6640   11.8460   18.7590 C   0  0  0  0  0  0  0  0  0  0  0  0
   13.2890   12.5380   22.1840 C   0  0  0  0  0  0  0  0  0  0  0  0
   15.1480   13.3900   17.0330 C   0  0  0  0  0  0  0  0  0  0  0  0
   13.2680   12.1870   17.9760 C   0  0  0  0  0  0  0  0  0  0  0  0
   15.6020   12.1270   16.4070 C   0  0  0  0  0  0  0  0  0  0  0  0
   13.7530   16.1740   20.0570 C   0  0  2  0  0  0  0  0  0  0  0  0
   14.4820   15.1440   19.2210 C   0  0  2  0  0  0  0  0  0  0  0  0
    8.1390    8.9960   16.7620 C   0  0  1  0  0  0  0  0  0  0  0  0
    8.6850   10.1270   15.9230 C   0  0  2  0  0  0  0  0  0  0  0  0
    9.6600   12.0130   20.1250 C   0  0  0  0  0  0  0  0  0  0  0  0
   10.8360   12.2180   20.8130 C   0  0  0  0  0  0  0  0  0  0  0  0
   10.8650   11.8950   18.0800 C   0  0  0  0  0  0  0  0  0  0  0  0
   12.0480   12.2630   20.1420 C   0  0  0  0  0  0  0  0  0  0  0  0
   13.2710   12.5070   24.9400 C   0  0  0  0  0  0  0  0  0  0  0  0
   13.1100   11.3550   22.8810 C   0  0  0  0  0  0  0  0  0  0  0  0
   13.6720   11.0640   17.3850 C   0  0  0  0  0  0  0  0  0  0  0  0
   14.0380   13.3810   17.7830 C   0  0  0  0  0  0  0  0  0  0  0  0
   13.7820   15.0690   22.2680 C   0  0  2  0  0  0  0  0  0  0  0  0
   12.8960   15.5460   21.1390 C   0  0  2  0  0  0  0  0  0  0  0  0
   15.1910    9.7730   16.0050 C   0  0  1  0  0  0  0  0  0  0  0  0
   14.8030   11.0190   16.6170 N   0  0  0  0  0  0  0  0  0  0  0  0
    8.3730   11.6210   18.1590 N   0  0  0  0  0  0  0  0  0  0  0  0
   16.6280   12.1360   15.7470 O   0  0  0  0  0  0  0  0  0  0  0  0
    6.6460   11.6820   16.2620 O   0  0  0  0  0  0  0  0  0  0  0  0
    8.8830   12.7380   15.8410 O   0  0  0  0  0  0  0  0  0  0  0  0
   13.2800   12.4880   20.7900 O   0  0  0  0  0  0  0  0  0  0  0  0
   13.5160   14.5060   18.3970 O   0  0  0  0  0  0  0  0  0  0  0  0
   13.2620   12.5140   26.2810 F   0  0  0  0  0  0  0  0  0  0  0  0
   12.9100   10.2060   22.2260 F   0  0  0  0  0  0  0  0  0  0  0  0
    8.0810   11.7050   16.4670 S   0  0  2  0  0  0  0  0  0  0  0  0
   13.6652   14.5851   24.8297 H   0  0  0  0  0  0  0  0  0  0  0  0
   12.9286   10.4090   24.8001 H   0  0  0  0  0  0  0  0  0  0  0  0
   15.7096   14.3000   16.8817 H   0  0  0  0  0  0  0  0  0  0  0  0
   13.1269   16.7884   19.4100 H   0  0  0  0  0  0  0  0  0  0  0  0
   14.4774   16.8480   20.5142 H   0  0  0  0  0  0  0  0  0  0  0  0
   14.9439   14.4058   19.8766 H   0  0  0  0  0  0  0  0  0  0  0  0
   15.2209   15.6429   18.5939 H   0  0  0  0  0  0  0  0  0  0  0  0
    8.5333    8.0481   16.3958 H   0  0  0  0  0  0  0  0  0  0  0  0
    8.4381    9.1363   17.8007 H   0  0  0  0  0  0  0  0  0  0  0  0
    7.0511    8.9863   16.6959 H   0  0  0  0  0  0  0  0  0  0  0  0
    8.4070    9.9721   14.8805 H   0  0  0  0  0  0  0  0  0  0  0  0
    9.7740   10.1199   15.9694 H   0  0  0  0  0  0  0  0  0  0  0  0
    8.7279   11.9841   20.6698 H   0  0  0  0  0  0  0  0  0  0  0  0
   10.8191   12.3454   21.8853 H   0  0  0  0  0  0  0  0  0  0  0  0
   10.8794   11.7620   17.0083 H   0  0  0  0  0  0  0  0  0  0  0  0
   13.1016   10.1549   17.5057 H   0  0  0  0  0  0  0  0  0  0  0  0
   14.8216   15.0960   21.9416 H   0  0  0  0  0  0  0  0  0  0  0  0
   13.7942   15.8230   23.0550 H   0  0  0  0  0  0  0  0  0  0  0  0
   12.3497   14.6992   20.7236 H   0  0  0  0  0  0  0  0  0  0  0  0
   12.1908   16.2855   21.5185 H   0  0  0  0  0  0  0  0  0  0  0  0
   14.4664    9.0003   16.2618 H   0  0  0  0  0  0  0  0  0  0  0  0
   15.2238    9.8941   14.9223 H   0  0  0  0  0  0  0  0  0  0  0  0
   16.1766    9.4810   16.3675 H   0  0  0  0  0  0  0  0  0  0  0  0
    7.5774   11.3999   18.7406 H   0  0  0  0  0  0  0  0  0  0  0  0
  1  4  1  0
  1 18  2  0
  1 35  1  0
  2 18  1  0
  2 19  2  0
  2 36  1  0
  3  8  1  0
  3 16  2  0
  3 17  1  0
  4  6  2  0
  4 22  1  0
  5 14  2  0
  5 16  1  0
  5 26  1  0
  6 19  1  0
  6 30  1  0
  7  9  1  0
  7 21  2  0
  7 37  1  0
  8 20  2  0
  8 21  1  0
  9 25  1  0
  9 27  2  0
 10 11  1  0
 10 23  1  0
 10 38  1  6
 10 39  1  0
 11 31  1  0
 11 40  1  1
 11 41  1  0
 12 13  1  0
 12 42  1  6
 12 43  1  0
 12 44  1  0
 13 34  1  0
 13 45  1  6
 13 46  1  0
 14 15  1  0
 14 47  1  0
 15 17  2  0
 15 48  1  0
 16 49  1  0
 17 30  1  0
 18 32  1  0
 19 33  1  0
 20 25  1  0
 20 50  1  0
 21 31  1  0
 22 23  1  0
 22 51  1  6
 22 52  1  0
 23 53  1  6
 23 54  1  0
 24 25  1  0
 24 55  1  6
 24 56  1  0
 24 57  1  0
 34 26  1  1
 26 58  1  0
 28 34  2  0
 29 34  2  0
M  END
