11
     RDKit          3D

 39 41  0  0  1  0  0  0  0  0999 V2000
   13.4695   13.5891   24.2201 C   0  0  0  0  0  0  0  0  0  0  0  0
    9.4715   13.5864   20.3260 C   0  0  0  0  0  0  0  0  0  0  0  0
   10.8403   13.7460   18.3559 C   0  0  0  0  0  0  0  0  0  0  0  0
   13.3924   11.1063   23.0107 C   0  0  0  0  0  0  0  0  0  0  0  0
   13.1181   13.4908   22.8890 C   0  0  0  0  0  0  0  0  0  0  0  0
   11.8527   13.1109   19.0462 C   0  0  0  0  0  0  0  0  0  0  0  0
   15.3711   13.5750   17.8709 C   0  0  0  0  0  0  0  0  0  0  0  0
   14.2331   13.7751   18.5761 C   0  0  0  0  0  0  0  0  0  0  0  0
   14.4037   10.3837   16.0909 C   0  0  1  0  0  0  0  0  0  0  0  0
   13.7965   12.4540   24.9348 C   0  0  0  0  0  0  0  0  0  0  0  0
    9.6463   13.9960   19.0165 C   0  0  0  0  0  0  0  0  0  0  0  0
   13.7714   11.2119   24.3317 C   0  0  0  0  0  0  0  0  0  0  0  0
   10.4779   12.9335   21.0106 C   0  0  0  0  0  0  0  0  0  0  0  0
   13.0625   12.2416   22.2980 C   0  0  0  0  0  0  0  0  0  0  0  0
   11.6834   12.7102   20.3584 C   0  0  0  0  0  0  0  0  0  0  0  0
   13.1276   12.8303   18.3397 C   0  0  0  0  0  0  0  0  0  0  0  0
   15.4661   12.3878   16.9668 C   0  0  0  0  0  0  0  0  0  0  0  0
   15.2120   15.4623   19.8058 C   0  0  1  0  0  0  0  0  0  0  0  0
   13.1899   11.7955   17.5676 N   0  0  0  0  0  0  0  0  0  0  0  0
   14.3660   11.5671   16.9284 N   0  0  0  0  0  0  0  0  0  0  0  0
   16.4988   12.1761   16.3245 O   0  0  0  0  0  0  0  0  0  0  0  0
   12.7471   12.0501   20.9614 O   0  0  0  0  0  0  0  0  0  0  0  0
   13.9822   14.8191   19.4661 O   0  0  0  0  0  0  0  0  0  0  0  0
   13.4890   14.5546   24.7036 H   0  0  0  0  0  0  0  0  0  0  0  0
    8.5356   13.7757   20.8306 H   0  0  0  0  0  0  0  0  0  0  0  0
   10.9882   14.0359   17.3261 H   0  0  0  0  0  0  0  0  0  0  0  0
   13.3542   10.1371   22.5357 H   0  0  0  0  0  0  0  0  0  0  0  0
   12.8909   14.3822   22.3233 H   0  0  0  0  0  0  0  0  0  0  0  0
   16.1940   14.2680   17.9658 H   0  0  0  0  0  0  0  0  0  0  0  0
   13.4583    9.8479   16.1754 H   0  0  0  0  0  0  0  0  0  0  0  0
   14.5630   10.6771   15.0533 H   0  0  0  0  0  0  0  0  0  0  0  0
   15.2183    9.7353   16.4138 H   0  0  0  0  0  0  0  0  0  0  0  0
   14.0751   12.5325   25.9753 H   0  0  0  0  0  0  0  0  0  0  0  0
    8.8504   14.5139   18.5019 H   0  0  0  0  0  0  0  0  0  0  0  0
   14.0459   10.3272   24.8871 H   0  0  0  0  0  0  0  0  0  0  0  0
   10.3169   12.6102   22.0284 H   0  0  0  0  0  0  0  0  0  0  0  0
   15.0159   16.2783   20.5014 H   0  0  0  0  0  0  0  0  0  0  0  0
   15.8830   14.7411   20.2724 H   0  0  0  0  0  0  0  0  0  0  0  0
   15.6767   15.8589   18.9031 H   0  0  0  0  0  0  0  0  0  0  0  0
  1  5  2  0
  1 10  1  0
  1 24  1  0
  2 11  2  0
  2 13  1  0
  2 25  1  0
  3  6  2  0
  3 11  1  0
  3 26  1  0
  4 12  1  0
  4 14  2  0
  4 27  1  0
  5 14  1  0
  5 28  1  0
  6 15  1  0
  6 16  1  0
  7  8  2  0
  7 17  1  0
  7 29  1  0
  8 16  1  0
  8 23  1  0
  9 20  1  0
  9 30  1  6
  9 31  1  0
  9 32  1  0
 10 12  2  0
 10 33  1  0
 11 34  1  0
 12 35  1  0
 13 15  2  0
 13 36  1  0
 14 22  1  0
 15 22  1  0
 16 19  2  0
 17 20  1  0
 17 21  2  0
 18 23  1  0
 18 37  1  1
 18 38  1  0
 18 39  1  0
 19 20  1  0
M  END
