2
     RDKit          3D

 22 23  0  0  1  0  0  0  0  0999 V2000
  -22.1080    8.0350   -2.7350 C   0  0  0  0  0  0  0  0  0  0  0  0
  -22.9880    8.0250   -0.4820 C   0  0  0  0  0  0  0  0  0  0  0  0
  -19.8600    6.0020   -0.5610 C   0  0  0  0  0  0  0  0  0  0  0  0
  -18.9190    5.6570   -1.5550 C   0  0  0  0  0  0  0  0  0  0  0  0
  -23.0690    8.4210   -1.8010 C   0  0  0  0  0  0  0  0  0  0  0  0
  -21.9540    7.2300   -0.0600 C   0  0  0  0  0  0  0  0  0  0  0  0
  -20.9580    6.8180   -0.9600 C   0  0  0  0  0  0  0  0  0  0  0  0
  -19.7460    5.6110    0.7560 N   0  0  0  0  0  0  0  0  0  0  0  0
  -19.0890    6.0950   -2.8100 N   0  0  0  0  0  0  0  0  0  0  0  0
  -20.0760    6.8260   -3.1700 N   0  0  0  0  0  0  0  0  0  0  0  0
  -21.0340    7.2180   -2.3180 C   0  0  0  0  0  0  0  0  0  0  0  0
  -17.7130    4.8590   -1.2960 C   0  0  0  0  0  0  0  0  0  0  0  0
  -16.7710    4.7780   -2.2590 N   0  0  0  0  0  0  0  0  0  0  0  0
  -17.5250    4.3260   -0.2190 O   0  0  0  0  0  0  0  0  0  0  0  0
  -23.7416    8.3413    0.2240 H   0  0  0  0  0  0  0  0  0  0  0  0
  -23.8982    9.0427   -2.1048 H   0  0  0  0  0  0  0  0  0  0  0  0
  -21.9009    6.9156    0.9719 H   0  0  0  0  0  0  0  0  0  0  0  0
  -20.4489    5.8861    1.4271 H   0  0  0  0  0  0  0  0  0  0  0  0
  -18.9596    5.0495    1.0498 H   0  0  0  0  0  0  0  0  0  0  0  0
  -15.9340    4.2349   -2.1023 H   0  0  0  0  0  0  0  0  0  0  0  0
  -16.9030    5.2605   -3.1364 H   0  0  0  0  0  0  0  0  0  0  0  0
  -22.1911    8.3606   -3.7614 H   0  0  0  0  0  0  0  0  0  0  0  0
  1  5  2  0
  1 11  1  0
  1 22  1  0
  2  5  1  0
  2  6  2  0
  2 15  1  0
  3  4  2  0
  3  7  1  0
  3  8  1  0
  4  9  1  0
  4 12  1  0
  5 16  1  0
  6  7  1  0
  6 17  1  0
  7 11  2  0
  8 18  1  0
  8 19  1  0
  9 10  2  0
 10 11  1  0
 12 13  1  0
 12 14  2  0
 13 20  1  0
 13 21  1  0
M  END
