8 flip
     RDKit          3D

 34 36  0  0  1  0  0  0  0  0999 V2000
  -22.3390    9.4414   -6.7341 C   0  0  0  0  0  0  0  0  0  0  0  0
  -21.3857    9.5344   -4.6162 C   0  0  0  0  0  0  0  0  0  0  0  0
  -22.2320    8.5140   -4.1430 C   0  0  0  0  0  0  0  0  0  0  0  0
  -22.1080    8.0350   -2.7350 C   0  0  0  0  0  0  0  0  0  0  0  0
  -22.9880    8.0250   -0.4820 C   0  0  0  0  0  0  0  0  0  0  0  0
  -19.8600    6.0020   -0.5610 C   0  0  0  0  0  0  0  0  0  0  0  0
  -18.9190    5.6570   -1.5550 C   0  0  0  0  0  0  0  0  0  0  0  0
  -24.1017    6.8117   -4.6354 C   0  0  1  0  0  0  0  0  0  0  0  0
  -23.1619    7.9332   -5.0449 C   0  0  0  0  0  0  0  0  0  0  0  0
  -23.2004    8.4142   -6.3565 C   0  0  0  0  0  0  0  0  0  0  0  0
  -21.4767    9.9594   -5.8666 N   0  0  0  0  0  0  0  0  0  0  0  0
  -23.0690    8.4210   -1.8010 C   0  0  0  0  0  0  0  0  0  0  0  0
  -21.9540    7.2300   -0.0600 C   0  0  0  0  0  0  0  0  0  0  0  0
  -20.9580    6.8180   -0.9600 C   0  0  0  0  0  0  0  0  0  0  0  0
  -19.7460    5.6110    0.7560 N   0  0  0  0  0  0  0  0  0  0  0  0
  -19.0890    6.0950   -2.8100 N   0  0  0  0  0  0  0  0  0  0  0  0
  -20.0760    6.8260   -3.1700 N   0  0  0  0  0  0  0  0  0  0  0  0
  -21.0340    7.2180   -2.3180 C   0  0  0  0  0  0  0  0  0  0  0  0
  -17.7130    4.8590   -1.2960 C   0  0  0  0  0  0  0  0  0  0  0  0
  -16.7710    4.7780   -2.2590 N   0  0  0  0  0  0  0  0  0  0  0  0
  -17.5250    4.3260   -0.2190 O   0  0  0  0  0  0  0  0  0  0  0  0
  -22.3671    9.8263   -7.7428 H   0  0  0  0  0  0  0  0  0  0  0  0
  -20.6539    9.9779   -3.9574 H   0  0  0  0  0  0  0  0  0  0  0  0
  -23.7416    8.3413    0.2240 H   0  0  0  0  0  0  0  0  0  0  0  0
  -24.7205    6.5266   -5.4862 H   0  0  0  0  0  0  0  0  0  0  0  0
  -23.5195    5.9513   -4.3057 H   0  0  0  0  0  0  0  0  0  0  0  0
  -24.7403    7.1517   -3.8201 H   0  0  0  0  0  0  0  0  0  0  0  0
  -23.8902    7.9964   -7.0749 H   0  0  0  0  0  0  0  0  0  0  0  0
  -23.8982    9.0427   -2.1048 H   0  0  0  0  0  0  0  0  0  0  0  0
  -21.9009    6.9156    0.9719 H   0  0  0  0  0  0  0  0  0  0  0  0
  -20.4489    5.8861    1.4271 H   0  0  0  0  0  0  0  0  0  0  0  0
  -18.9596    5.0495    1.0498 H   0  0  0  0  0  0  0  0  0  0  0  0
  -15.9340    4.2349   -2.1023 H   0  0  0  0  0  0  0  0  0  0  0  0
  -16.9030    5.2605   -3.1364 H   0  0  0  0  0  0  0  0  0  0  0  0
  1 10  1  0
  1 11  2  0
  1 22  1  0
  2  3  2  0
  2 11  1  0
  2 23  1  0
  3  4  1  0
  3  9  1  0
  4 12  2  0
  4 18  1  0
  5 12  1  0
  5 13  2  0
  5 24  1  0
  6  7  2  0
  6 14  1  0
  6 15  1  0
  7 16  1  0
  7 19  1  0
  8  9  1  0
  8 25  1  6
  8 26  1  0
  8 27  1  0
  9 10  2  0
 10 28  1  0
 12 29  1  0
 13 14  1  0
 13 30  1  0
 14 18  2  0
 15 31  1  0
 15 32  1  0
 16 17  2  0
 17 18  1  0
 19 20  1  0
 19 21  2  0
 20 33  1  0
 20 34  1  0
M  END
