8
     RDKit          3D

 34 36  0  0  1  0  0  0  0  0999 V2000
  -22.5830    9.3550   -6.7420 C   0  0  0  0  0  0  0  0  0  0  0  0
  -23.2120    7.9630   -4.9900 C   0  0  0  0  0  0  0  0  0  0  0  0
  -22.2320    8.5140   -4.1430 C   0  0  0  0  0  0  0  0  0  0  0  0
  -22.1080    8.0350   -2.7350 C   0  0  0  0  0  0  0  0  0  0  0  0
  -22.9880    8.0250   -0.4820 C   0  0  0  0  0  0  0  0  0  0  0  0
  -19.8600    6.0020   -0.5610 C   0  0  0  0  0  0  0  0  0  0  0  0
  -18.9190    5.6570   -1.5550 C   0  0  0  0  0  0  0  0  0  0  0  0
  -20.3380   10.2270   -3.8050 C   0  0  1  0  0  0  0  0  0  0  0  0
  -21.4080    9.5540   -4.6480 C   0  0  0  0  0  0  0  0  0  0  0  0
  -21.6020    9.9700   -5.9680 C   0  0  0  0  0  0  0  0  0  0  0  0
  -23.3410    8.3880   -6.2370 N   0  0  0  0  0  0  0  0  0  0  0  0
  -23.0690    8.4210   -1.8010 C   0  0  0  0  0  0  0  0  0  0  0  0
  -21.9540    7.2300   -0.0600 C   0  0  0  0  0  0  0  0  0  0  0  0
  -20.9580    6.8180   -0.9600 C   0  0  0  0  0  0  0  0  0  0  0  0
  -19.7460    5.6110    0.7560 N   0  0  0  0  0  0  0  0  0  0  0  0
  -19.0890    6.0950   -2.8100 N   0  0  0  0  0  0  0  0  0  0  0  0
  -20.0760    6.8260   -3.1700 N   0  0  0  0  0  0  0  0  0  0  0  0
  -21.0340    7.2180   -2.3180 C   0  0  0  0  0  0  0  0  0  0  0  0
  -17.7130    4.8590   -1.2960 C   0  0  0  0  0  0  0  0  0  0  0  0
  -16.7710    4.7780   -2.2590 N   0  0  0  0  0  0  0  0  0  0  0  0
  -17.5250    4.3260   -0.2190 O   0  0  0  0  0  0  0  0  0  0  0  0
  -22.7348    9.6630   -7.7660 H   0  0  0  0  0  0  0  0  0  0  0  0
  -23.8671    7.1863   -4.6241 H   0  0  0  0  0  0  0  0  0  0  0  0
  -23.7416    8.3413    0.2240 H   0  0  0  0  0  0  0  0  0  0  0  0
  -19.8347   10.9908   -4.3978 H   0  0  0  0  0  0  0  0  0  0  0  0
  -20.7997   10.6903   -2.9330 H   0  0  0  0  0  0  0  0  0  0  0  0
  -19.6109    9.4835   -3.4785 H   0  0  0  0  0  0  0  0  0  0  0  0
  -20.9991   10.7610   -6.3890 H   0  0  0  0  0  0  0  0  0  0  0  0
  -23.8982    9.0427   -2.1048 H   0  0  0  0  0  0  0  0  0  0  0  0
  -21.9009    6.9156    0.9719 H   0  0  0  0  0  0  0  0  0  0  0  0
  -20.4489    5.8861    1.4271 H   0  0  0  0  0  0  0  0  0  0  0  0
  -18.9596    5.0495    1.0498 H   0  0  0  0  0  0  0  0  0  0  0  0
  -15.9340    4.2349   -2.1023 H   0  0  0  0  0  0  0  0  0  0  0  0
  -16.9030    5.2605   -3.1364 H   0  0  0  0  0  0  0  0  0  0  0  0
  1 10  1  0
  1 11  2  0
  1 22  1  0
  2  3  2  0
  2 11  1  0
  2 23  1  0
  3  4  1  0
  3  9  1  0
  4 12  2  0
  4 18  1  0
  5 12  1  0
  5 13  2  0
  5 24  1  0
  6  7  2  0
  6 14  1  0
  6 15  1  0
  7 16  1  0
  7 19  1  0
  8  9  1  0
  8 25  1  6
  8 26  1  0
  8 27  1  0
  9 10  2  0
 10 28  1  0
 12 29  1  0
 13 14  1  0
 13 30  1  0
 14 18  2  0
 15 31  1  0
 15 32  1  0
 16 17  2  0
 17 18  1  0
 19 20  1  0
 19 21  2  0
 20 33  1  0
 20 34  1  0
M  END
