11
     RDKit          3D

 38 41  0  0  1  0  0  0  0  0999 V2000
  -20.3249   10.1456   -3.8790 C   0  0  1  0  0  0  0  0  0  0  0  0
  -21.3675    9.4459   -4.7327 C   0  0  0  0  0  0  0  0  0  0  0  0
  -21.4652    9.8194   -6.0481 C   0  0  0  0  0  0  0  0  0  0  0  0
  -22.4259    9.1829   -6.8652 C   0  0  0  0  0  0  0  0  0  0  0  0
  -22.7854    9.3119   -8.2358 C   0  0  0  0  0  0  0  0  0  0  0  0
  -23.7535    8.4712   -8.4903 N   0  0  0  0  0  0  0  0  0  0  0  0
  -24.0932    7.7535   -7.3433 N   0  0  0  0  0  0  0  0  0  0  0  0
  -23.2714    8.1826   -6.3223 C   0  0  0  0  0  0  0  0  0  0  0  0
  -23.1654    7.8174   -4.9840 C   0  0  0  0  0  0  0  0  0  0  0  0
  -22.2151    8.4414   -4.1872 C   0  0  0  0  0  0  0  0  0  0  0  0
  -22.1196    8.0239   -2.7586 C   0  0  0  0  0  0  0  0  0  0  0  0
  -23.0628    8.4271   -1.8162 C   0  0  0  0  0  0  0  0  0  0  0  0
  -22.9579    8.0393   -0.4855 C   0  0  0  0  0  0  0  0  0  0  0  0
  -21.9353    7.2347   -0.0379 C   0  0  0  0  0  0  0  0  0  0  0  0
  -20.9541    6.8194   -0.9595 C   0  0  0  0  0  0  0  0  0  0  0  0
  -19.8542    6.0001   -0.5500 C   0  0  0  0  0  0  0  0  0  0  0  0
  -19.7100    5.5988    0.7654 N   0  0  0  0  0  0  0  0  0  0  0  0
  -18.9304    5.6618   -1.5548 C   0  0  0  0  0  0  0  0  0  0  0  0
  -19.1032    6.0899   -2.8153 N   0  0  0  0  0  0  0  0  0  0  0  0
  -20.1042    6.8109   -3.1895 N   0  0  0  0  0  0  0  0  0  0  0  0
  -21.0418    7.2070   -2.3197 C   0  0  0  0  0  0  0  0  0  0  0  0
  -17.7186    4.8655   -1.2867 C   0  0  0  0  0  0  0  0  0  0  0  0
  -16.7457    4.8668   -2.2282 N   0  0  0  0  0  0  0  0  0  0  0  0
  -17.5723    4.2557   -0.2334 O   0  0  0  0  0  0  0  0  0  0  0  0
  -20.3608    9.7502   -2.8639 H   0  0  0  0  0  0  0  0  0  0  0  0
  -19.3345    9.9737   -4.3005 H   0  0  0  0  0  0  0  0  0  0  0  0
  -20.5299   11.2160   -3.8589 H   0  0  0  0  0  0  0  0  0  0  0  0
  -20.8149   10.5868   -6.4413 H   0  0  0  0  0  0  0  0  0  0  0  0
  -22.2705   10.0233   -8.8645 H   0  0  0  0  0  0  0  0  0  0  0  0
  -24.8311    7.0648   -7.3786 H   0  0  0  0  0  0  0  0  0  0  0  0
  -23.8172    7.0579   -4.5782 H   0  0  0  0  0  0  0  0  0  0  0  0
  -23.8922    9.0509   -2.1151 H   0  0  0  0  0  0  0  0  0  0  0  0
  -23.6930    8.3706    0.2330 H   0  0  0  0  0  0  0  0  0  0  0  0
  -21.8980    6.9357    0.9992 H   0  0  0  0  0  0  0  0  0  0  0  0
  -18.9266    5.0206    1.0339 H   0  0  0  0  0  0  0  0  0  0  0  0
  -20.3880    5.8838    1.4576 H   0  0  0  0  0  0  0  0  0  0  0  0
  -15.9004    4.3338   -2.0817 H   0  0  0  0  0  0  0  0  0  0  0  0
  -16.8651    5.4008   -3.0771 H   0  0  0  0  0  0  0  0  0  0  0  0
  1  2  1  0
  1 25  1  1
  1 26  1  0
  1 27  1  0
  2  3  2  0
  2 10  1  0
  3  4  1  0
  3 28  1  0
  4  5  1  0
  4  8  2  0
  5  6  2  0
  5 29  1  0
  6  7  1  0
  7  8  1  0
  7 30  1  0
  8  9  1  0
  9 10  2  0
  9 31  1  0
 10 11  1  0
 11 12  2  0
 11 21  1  0
 12 13  1  0
 12 32  1  0
 13 14  2  0
 13 33  1  0
 14 15  1  0
 14 34  1  0
 15 16  1  0
 15 21  2  0
 16 17  1  0
 16 18  2  0
 17 35  1  0
 17 36  1  0
 18 19  1  0
 18 22  1  0
 19 20  2  0
 20 21  1  0
 22 23  1  0
 22 24  2  0
 23 37  1  0
 23 38  1  0
M  END
