26
     RDKit          3D

 46 48  0  0  1  0  0  0  0  0999 V2000
  -27.8226   10.8137   30.5032 C   0  0  0  0  0  0  0  0  0  0  0  0
  -28.1920   11.4132   31.7161 C   0  0  0  0  0  0  0  0  0  0  0  0
  -27.1709    9.5575   30.5453 C   0  0  0  0  0  0  0  0  0  0  0  0
  -27.9082   10.7934   32.9219 C   0  0  0  0  0  0  0  0  0  0  0  0
  -26.9091    8.9098   31.7717 C   0  0  0  0  0  0  0  0  0  0  0  0
  -27.2971    9.5177   32.9911 C   0  0  0  0  0  0  0  0  0  0  0  0
  -28.1088   11.4920   29.2287 C   0  0  0  0  0  0  0  0  0  0  0  0
  -29.1963   12.3733   29.0595 C   0  0  0  0  0  0  0  0  0  0  0  0
  -30.5893   14.4218   26.2370 C   0  0  1  0  0  0  0  0  0  0  0  0
  -29.6111   15.5631   25.9368 C   0  0  2  0  0  0  0  0  0  0  0  0
  -30.8300   17.9967   23.2018 C   0  0  0  0  0  0  0  0  0  0  0  0
  -30.6212   17.4056   24.4669 C   0  0  0  0  0  0  0  0  0  0  0  0
  -29.3599   15.5923   23.4143 C   0  0  0  0  0  0  0  0  0  0  0  0
  -29.7857   16.4656   26.9998 O   0  0  0  0  0  0  0  0  0  0  0  0
  -29.3323   12.9683   27.7966 C   0  0  0  0  0  0  0  0  0  0  0  0
  -27.4849   11.8576   27.0589 C   0  0  0  0  0  0  0  0  0  0  0  0
  -30.3262   17.3662   22.0386 C   0  0  0  0  0  0  0  0  0  0  0  0
  -29.5850   16.1690   22.1461 C   0  0  0  0  0  0  0  0  0  0  0  0
  -29.8850   16.2004   24.5794 C   0  0  0  0  0  0  0  0  0  0  0  0
  -28.4737   12.7041   26.7894 N   0  0  0  0  0  0  0  0  0  0  0  0
  -27.2556   11.2397   28.2133 N   0  0  0  0  0  0  0  0  0  0  0  0
  -30.3799   13.8647   27.5735 N   0  0  0  0  0  0  0  0  0  0  0  0
  -28.6745   12.3784   31.7529 H   0  0  0  0  0  0  0  0  0  0  0  0
  -26.8698    9.0824   29.6259 H   0  0  0  0  0  0  0  0  0  0  0  0
  -26.4075    7.9548   31.7485 H   0  0  0  0  0  0  0  0  0  0  0  0
  -29.8953   12.5775   29.8541 H   0  0  0  0  0  0  0  0  0  0  0  0
  -31.6132   14.7834   26.1522 H   0  0  0  0  0  0  0  0  0  0  0  0
  -30.4639   13.6296   25.5020 H   0  0  0  0  0  0  0  0  0  0  0  0
  -28.5880   15.1798   25.9548 H   0  0  0  0  0  0  0  0  0  0  0  0
  -31.4238   18.8923   23.1197 H   0  0  0  0  0  0  0  0  0  0  0  0
  -31.0192   17.8808   25.3508 H   0  0  0  0  0  0  0  0  0  0  0  0
  -28.7861   14.6816   23.4922 H   0  0  0  0  0  0  0  0  0  0  0  0
  -29.3806   16.0656   27.7829 H   0  0  0  0  0  0  0  0  0  0  0  0
  -26.7905   11.6563   26.2624 H   0  0  0  0  0  0  0  0  0  0  0  0
  -30.5178   17.8002   21.0706 H   0  0  0  0  0  0  0  0  0  0  0  0
  -29.1981   15.6935   21.2608 H   0  0  0  0  0  0  0  0  0  0  0  0
  -30.7267   14.3934   28.3660 H   0  0  0  0  0  0  0  0  0  0  0  0
  -28.1704   11.5709   33.9594 F   0  0  0  0  0  0  0  0  0  0  0  0
  -27.0680    8.8952   34.2019 O   0  0  0  0  0  0  0  0  0  0  0  0
  -28.2167    8.6270   35.0136 C   0  0  1  0  0  0  0  0  0  0  0  0
  -29.0844    8.4260   34.3894 H   0  0  0  0  0  0  0  0  0  0  0  0
  -28.0281    7.7395   35.6200 H   0  0  0  0  0  0  0  0  0  0  0  0
  -28.5003    9.7716   35.9841 C   0  0  1  0  0  0  0  0  0  0  0  0
  -29.3743    9.6142   36.5819 H   0  0  0  0  0  0  0  0  0  0  0  0
  -27.6420   10.0323   36.5857 H   0  0  0  0  0  0  0  0  0  0  0  0
  -28.8074   10.6534   35.5272 H   0  0  0  0  0  0  0  0  0  0  0  0
  1  2  1  0
  1  3  2  0
  1  7  1  0
  2  4  2  0
  2 23  1  0
  3  5  1  0
  3 24  1  0
  4  6  1  0
  4 38  1  0
  5  6  2  0
  5 25  1  0
  6 39  1  0
  7  8  1  0
  7 21  2  0
  8 15  2  0
  8 26  1  0
  9 10  1  0
  9 22  1  0
  9 27  1  1
  9 28  1  0
 10 14  1  0
 10 19  1  0
 10 29  1  6
 11 12  2  0
 11 17  1  0
 11 30  1  0
 12 19  1  0
 12 31  1  0
 13 18  1  0
 13 19  2  0
 13 32  1  0
 14 33  1  0
 15 20  1  0
 15 22  1  0
 16 20  2  0
 16 21  1  0
 16 34  1  0
 17 18  2  0
 17 35  1  0
 18 36  1  0
 22 37  1  0
 39 40  1  0
 40 41  1  6
 40 42  1  0
 40 43  1  0
 43 44  1  1
 43 45  1  0
 43 46  1  0
M  END
