25
     RDKit          3D

 46 48  0  0  1  0  0  0  0  0999 V2000
  -27.8237   10.8125   30.5041 C   0  0  0  0  0  0  0  0  0  0  0  0
  -28.1941   11.4126   31.7194 C   0  0  0  0  0  0  0  0  0  0  0  0
  -27.1715    9.5571   30.5460 C   0  0  0  0  0  0  0  0  0  0  0  0
  -27.9090   10.8060   32.9383 C   0  0  0  0  0  0  0  0  0  0  0  0
  -26.9124    8.9105   31.7738 C   0  0  0  0  0  0  0  0  0  0  0  0
  -27.3018    9.5212   32.9955 C   0  0  0  0  0  0  0  0  0  0  0  0
  -28.1090   11.4915   29.2285 C   0  0  0  0  0  0  0  0  0  0  0  0
  -29.1965   12.3732   29.0593 C   0  0  0  0  0  0  0  0  0  0  0  0
  -30.5899   14.4212   26.2367 C   0  0  1  0  0  0  0  0  0  0  0  0
  -29.6118   15.5626   25.9369 C   0  0  2  0  0  0  0  0  0  0  0  0
  -30.8261   17.9996   23.2018 C   0  0  0  0  0  0  0  0  0  0  0  0
  -30.6210   17.4059   24.4667 C   0  0  0  0  0  0  0  0  0  0  0  0
  -29.3601   15.5919   23.4139 C   0  0  0  0  0  0  0  0  0  0  0  0
  -29.7863   16.4657   26.9993 O   0  0  0  0  0  0  0  0  0  0  0  0
  -29.3331   12.9674   27.7955 C   0  0  0  0  0  0  0  0  0  0  0  0
  -27.4851   11.8558   27.0576 C   0  0  0  0  0  0  0  0  0  0  0  0
  -30.3234   17.3679   22.0384 C   0  0  0  0  0  0  0  0  0  0  0  0
  -29.5837   16.1694   22.1456 C   0  0  0  0  0  0  0  0  0  0  0  0
  -29.8850   16.1997   24.5791 C   0  0  0  0  0  0  0  0  0  0  0  0
  -28.4760   12.7003   26.7869 N   0  0  0  0  0  0  0  0  0  0  0  0
  -27.2554   11.2394   28.2129 N   0  0  0  0  0  0  0  0  0  0  0  0
  -30.3814   13.8635   27.5729 N   0  0  0  0  0  0  0  0  0  0  0  0
  -28.6731   12.3794   31.7469 H   0  0  0  0  0  0  0  0  0  0  0  0
  -26.8696    9.0819   29.6259 H   0  0  0  0  0  0  0  0  0  0  0  0
  -26.4086    7.9552   31.7496 H   0  0  0  0  0  0  0  0  0  0  0  0
  -29.8956   12.5779   29.8544 H   0  0  0  0  0  0  0  0  0  0  0  0
  -31.6139   14.7829   26.1527 H   0  0  0  0  0  0  0  0  0  0  0  0
  -30.4651   13.6295   25.5006 H   0  0  0  0  0  0  0  0  0  0  0  0
  -28.5880   15.1816   25.9542 H   0  0  0  0  0  0  0  0  0  0  0  0
  -31.4231   18.8936   23.1196 H   0  0  0  0  0  0  0  0  0  0  0  0
  -31.0199   17.8811   25.3506 H   0  0  0  0  0  0  0  0  0  0  0  0
  -28.7861   14.6811   23.4922 H   0  0  0  0  0  0  0  0  0  0  0  0
  -29.3825   16.0662   27.7847 H   0  0  0  0  0  0  0  0  0  0  0  0
  -26.7900   11.6544   26.2618 H   0  0  0  0  0  0  0  0  0  0  0  0
  -30.5174   17.8005   21.0700 H   0  0  0  0  0  0  0  0  0  0  0  0
  -29.1975   15.6931   21.2600 H   0  0  0  0  0  0  0  0  0  0  0  0
  -30.7260   14.3938   28.3653 H   0  0  0  0  0  0  0  0  0  0  0  0
  -28.2024   11.8531   34.2635 Cl  0  0  0  0  0  0  0  0  0  0  0  0
  -27.0591    8.8944   34.2010 O   0  0  0  0  0  0  0  0  0  0  0  0
  -28.2022    8.4042   34.9113 C   0  0  1  0  0  0  0  0  0  0  0  0
  -29.0060    8.1549   34.2226 H   0  0  0  0  0  0  0  0  0  0  0  0
  -27.9293    7.5031   35.4565 H   0  0  0  0  0  0  0  0  0  0  0  0
  -28.6856    9.3999   35.9584 C   0  0  1  0  0  0  0  0  0  0  0  0
  -29.5582    9.0948   36.4942 H   0  0  0  0  0  0  0  0  0  0  0  0
  -27.8988    9.7422   36.6222 H   0  0  0  0  0  0  0  0  0  0  0  0
  -29.1269   10.2320   35.5102 H   0  0  0  0  0  0  0  0  0  0  0  0
  1  2  1  0
  1  3  2  0
  1  7  1  0
  2  4  2  0
  2 23  1  0
  3  5  1  0
  3 24  1  0
  4  6  1  0
  4 38  1  0
  5  6  2  0
  5 25  1  0
  6 39  1  0
  7  8  1  0
  7 21  2  0
  8 15  2  0
  8 26  1  0
  9 10  1  0
  9 22  1  0
  9 27  1  1
  9 28  1  0
 10 14  1  0
 10 19  1  0
 10 29  1  6
 11 12  2  0
 11 17  1  0
 11 30  1  0
 12 19  1  0
 12 31  1  0
 13 18  1  0
 13 19  2  0
 13 32  1  0
 14 33  1  0
 15 20  1  0
 15 22  1  0
 16 20  2  0
 16 21  1  0
 16 34  1  0
 17 18  2  0
 17 35  1  0
 18 36  1  0
 22 37  1  0
 39 40  1  0
 40 41  1  6
 40 42  1  0
 40 43  1  0
 43 44  1  1
 43 45  1  0
 43 46  1  0
M  END
