22
     RDKit          3D

 46 48  0  0  1  0  0  0  0  0999 V2000
  -27.8196   10.8206   30.5136 C   0  0  0  0  0  0  0  0  0  0  0  0
  -28.1862   11.4154   31.7424 C   0  0  0  0  0  0  0  0  0  0  0  0
  -27.1695    9.5648   30.5496 C   0  0  0  0  0  0  0  0  0  0  0  0
  -27.9122   10.7854   32.9706 C   0  0  0  0  0  0  0  0  0  0  0  0
  -26.9042    8.9161   31.7716 C   0  0  0  0  0  0  0  0  0  0  0  0
  -27.2855    9.5135   32.9857 C   0  0  0  0  0  0  0  0  0  0  0  0
  -28.1064   11.4981   29.2305 C   0  0  0  0  0  0  0  0  0  0  0  0
  -29.1902   12.3759   29.0563 C   0  0  0  0  0  0  0  0  0  0  0  0
  -30.5843   14.4272   26.2421 C   0  0  2  0  0  0  0  0  0  0  0  0
  -29.6030   15.5711   25.9398 C   0  0  2  0  0  0  0  0  0  0  0  0
  -30.8509   17.9756   23.2021 C   0  0  0  0  0  0  0  0  0  0  0  0
  -30.6168   17.4031   24.4681 C   0  0  0  0  0  0  0  0  0  0  0  0
  -29.3586   15.5986   23.4191 C   0  0  0  0  0  0  0  0  0  0  0  0
  -29.7458   16.4586   27.0261 O   0  0  0  0  0  0  0  0  0  0  0  0
  -29.3233   12.9701   27.8032 C   0  0  0  0  0  0  0  0  0  0  0  0
  -27.4802   11.8703   27.0699 C   0  0  0  0  0  0  0  0  0  0  0  0
  -30.3387   17.3595   22.0442 C   0  0  0  0  0  0  0  0  0  0  0  0
  -29.5929   16.1701   22.1529 C   0  0  0  0  0  0  0  0  0  0  0  0
  -29.8671   16.2110   24.5846 C   0  0  0  0  0  0  0  0  0  0  0  0
  -28.4623   12.7237   26.8119 N   0  0  0  0  0  0  0  0  0  0  0  0
  -27.2608   11.2462   28.2173 N   0  0  0  0  0  0  0  0  0  0  0  0
  -30.3676   13.8720   27.5798 N   0  0  0  0  0  0  0  0  0  0  0  0
  -28.6615   12.3839   31.7532 H   0  0  0  0  0  0  0  0  0  0  0  0
  -26.8723    9.0931   29.6238 H   0  0  0  0  0  0  0  0  0  0  0  0
  -26.4134    7.9540   31.7782 H   0  0  0  0  0  0  0  0  0  0  0  0
  -29.8829   12.5758   29.8582 H   0  0  0  0  0  0  0  0  0  0  0  0
  -30.4947   13.6431   25.4879 H   0  0  0  0  0  0  0  0  0  0  0  0
  -31.6090   14.7952   26.1785 H   0  0  0  0  0  0  0  0  0  0  0  0
  -28.5742   15.2080   25.9409 H   0  0  0  0  0  0  0  0  0  0  0  0
  -31.4206   18.8899   23.1225 H   0  0  0  0  0  0  0  0  0  0  0  0
  -31.0094   17.8846   25.3523 H   0  0  0  0  0  0  0  0  0  0  0  0
  -28.7844   14.6863   23.4966 H   0  0  0  0  0  0  0  0  0  0  0  0
  -29.7412   15.8916   27.7846 H   0  0  0  0  0  0  0  0  0  0  0  0
  -26.7895   11.6668   26.2654 H   0  0  0  0  0  0  0  0  0  0  0  0
  -30.5158   17.8004   21.0740 H   0  0  0  0  0  0  0  0  0  0  0  0
  -29.1982   15.6973   21.2654 H   0  0  0  0  0  0  0  0  0  0  0  0
  -31.1348   13.9025   28.2334 H   0  0  0  0  0  0  0  0  0  0  0  0
  -28.2930   11.4773   34.2927 C   0  0  1  0  0  0  0  0  0  0  0  0
  -27.0572    8.8797   34.1718 O   0  0  0  0  0  0  0  0  0  0  0  0
  -26.3884    7.5619   33.9147 C   0  0  1  0  0  0  0  0  0  0  0  0
  -26.2059    7.0555   34.8625 H   0  0  0  0  0  0  0  0  0  0  0  0
  -27.0326    6.9426   33.2905 H   0  0  0  0  0  0  0  0  0  0  0  0
  -25.4400    7.7287   33.4040 H   0  0  0  0  0  0  0  0  0  0  0  0
  -28.0053   10.8431   35.1313 H   0  0  0  0  0  0  0  0  0  0  0  0
  -27.7739   12.4330   34.3658 H   0  0  0  0  0  0  0  0  0  0  0  0
  -29.3695   11.6462   34.3181 H   0  0  0  0  0  0  0  0  0  0  0  0
  1  2  1  0
  1  3  2  0
  1  7  1  0
  2  4  2  0
  2 23  1  0
  3  5  1  0
  3 24  1  0
  4  6  1  0
  4 38  1  0
  5  6  2  0
  5 25  1  0
  6 39  1  0
  7  8  1  0
  7 21  2  0
  8 15  2  0
  8 26  1  0
  9 10  1  0
  9 22  1  0
  9 27  1  6
  9 28  1  0
 10 14  1  0
 10 19  1  0
 10 29  1  6
 11 12  2  0
 11 17  1  0
 11 30  1  0
 12 19  1  0
 12 31  1  0
 13 18  1  0
 13 19  2  0
 13 32  1  0
 14 33  1  0
 15 20  1  0
 15 22  1  0
 16 20  2  0
 16 21  1  0
 16 34  1  0
 17 18  2  0
 17 35  1  0
 18 36  1  0
 22 37  1  0
 38 44  1  1
 38 45  1  0
 38 46  1  0
 39 40  1  0
 40 41  1  1
 40 42  1  0
 40 43  1  0
M  END
