9
     RDKit          3D

 46 48  0  0  1  0  0  0  0  0999 V2000
  -27.8210   10.8173   30.5071 C   0  0  0  0  0  0  0  0  0  0  0  0
  -28.1904   11.4148   31.7276 C   0  0  0  0  0  0  0  0  0  0  0  0
  -27.1702    9.5602   30.5436 C   0  0  0  0  0  0  0  0  0  0  0  0
  -27.9163   10.7663   32.9244 C   0  0  0  0  0  0  0  0  0  0  0  0
  -26.9080    8.9104   31.7633 C   0  0  0  0  0  0  0  0  0  0  0  0
  -27.2926    9.4985   32.9754 C   0  0  0  0  0  0  0  0  0  0  0  0
  -28.1087   11.4926   29.2298 C   0  0  0  0  0  0  0  0  0  0  0  0
  -29.1939   12.3758   29.0595 C   0  0  0  0  0  0  0  0  0  0  0  0
  -30.5939   14.4289   26.2409 C   0  0  1  0  0  0  0  0  0  0  0  0
  -29.6100   15.5623   25.9393 C   0  0  2  0  0  0  0  0  0  0  0  0
  -30.8322   17.9937   23.2019 C   0  0  0  0  0  0  0  0  0  0  0  0
  -30.6214   17.4048   24.4667 C   0  0  0  0  0  0  0  0  0  0  0  0
  -29.3598   15.5932   23.4153 C   0  0  0  0  0  0  0  0  0  0  0  0
  -29.7850   16.4658   26.9997 O   0  0  0  0  0  0  0  0  0  0  0  0
  -29.3315   12.9673   27.7952 C   0  0  0  0  0  0  0  0  0  0  0  0
  -27.4851   11.8593   27.0603 C   0  0  0  0  0  0  0  0  0  0  0  0
  -30.3277   17.3647   22.0394 C   0  0  0  0  0  0  0  0  0  0  0  0
  -29.5862   16.1689   22.1473 C   0  0  0  0  0  0  0  0  0  0  0  0
  -29.8835   16.2013   24.5807 C   0  0  0  0  0  0  0  0  0  0  0  0
  -28.4734   12.7057   26.7901 N   0  0  0  0  0  0  0  0  0  0  0  0
  -27.2567   11.2401   28.2136 N   0  0  0  0  0  0  0  0  0  0  0  0
  -30.3750   13.8656   27.5747 N   0  0  0  0  0  0  0  0  0  0  0  0
  -28.6939   12.3694   31.7519 H   0  0  0  0  0  0  0  0  0  0  0  0
  -26.8628    9.0856   29.6272 H   0  0  0  0  0  0  0  0  0  0  0  0
  -26.4065    7.9558   31.7687 H   0  0  0  0  0  0  0  0  0  0  0  0
  -29.8783   12.5997   29.8613 H   0  0  0  0  0  0  0  0  0  0  0  0
  -31.5973   14.8441   26.2453 H   0  0  0  0  0  0  0  0  0  0  0  0
  -30.5820   13.6729   25.4544 H   0  0  0  0  0  0  0  0  0  0  0  0
  -28.5911   15.1730   25.9934 H   0  0  0  0  0  0  0  0  0  0  0  0
  -31.4248   18.8903   23.1201 H   0  0  0  0  0  0  0  0  0  0  0  0
  -31.0286   17.8807   25.3461 H   0  0  0  0  0  0  0  0  0  0  0  0
  -28.7872   14.6819   23.4935 H   0  0  0  0  0  0  0  0  0  0  0  0
  -29.2841   16.1165   27.7529 H   0  0  0  0  0  0  0  0  0  0  0  0
  -26.7922   11.6565   26.2624 H   0  0  0  0  0  0  0  0  0  0  0  0
  -30.5184   17.7992   21.0713 H   0  0  0  0  0  0  0  0  0  0  0  0
  -29.1995   15.6934   21.2620 H   0  0  0  0  0  0  0  0  0  0  0  0
  -30.5125   14.5201   28.3375 H   0  0  0  0  0  0  0  0  0  0  0  0
  -28.2713   11.2844   33.7220 H   0  0  0  0  0  0  0  0  0  0  0  0
  -27.0276    8.7815   34.1267 O   0  0  0  0  0  0  0  0  0  0  0  0
  -27.4814    9.3079   35.3738 C   0  0  1  0  0  0  0  0  0  0  0  0
  -26.9165   10.7264   35.6232 C   0  0  1  0  0  0  0  0  0  0  0  0
  -28.5690    9.3233   35.3891 H   0  0  0  0  0  0  0  0  0  0  0  0
  -27.1434    8.6584   36.1850 H   0  0  0  0  0  0  0  0  0  0  0  0
  -26.5046   10.8385   36.8692 F   0  0  0  0  0  0  0  0  0  0  0  0
  -25.8845   10.9670   34.7929 F   0  0  0  0  0  0  0  0  0  0  0  0
  -27.8512   11.6709   35.5446 F   0  0  0  0  0  0  0  0  0  0  0  0
  1  2  1  0
  1  3  2  0
  1  7  1  0
  2  4  2  0
  2 23  1  0
  3  5  1  0
  3 24  1  0
  4  6  1  0
  4 38  1  0
  5  6  2  0
  5 25  1  0
  6 39  1  0
  7  8  1  0
  7 21  2  0
  8 15  2  0
  8 26  1  0
  9 10  1  0
  9 22  1  0
  9 27  1  1
  9 28  1  0
 10 14  1  0
 10 19  1  0
 10 29  1  6
 11 12  2  0
 11 17  1  0
 11 30  1  0
 12 19  1  0
 12 31  1  0
 13 18  1  0
 13 19  2  0
 13 32  1  0
 14 33  1  0
 15 20  1  0
 15 22  1  0
 16 20  2  0
 16 21  1  0
 16 34  1  0
 17 18  2  0
 17 35  1  0
 18 36  1  0
 22 37  1  0
 39 40  1  0
 40 41  1  0
 40 42  1  6
 40 43  1  0
 41 44  1  1
 41 45  1  0
 41 46  1  0
M  END
