CAT-17b
     RDKit          3D

 47 50  0  0  1  0  0  0  0  0999 V2000
   14.8884    4.7758    1.2264 C   0  0  1  0  0  0  0  0  0  0  0  0
   15.4957    3.5598    0.8392 O   0  0  0  0  0  0  0  0  0  0  0  0
   15.4238    3.2070   -0.4882 C   0  0  0  0  0  0  0  0  0  0  0  0
   15.1334    4.1078   -1.5370 C   0  0  0  0  0  0  0  0  0  0  0  0
   15.1104    3.6468   -2.8636 C   0  0  0  0  0  0  0  0  0  0  0  0
   15.3679    2.2912   -3.1537 C   0  0  0  0  0  0  0  0  0  0  0  0
   15.6266    1.3615   -2.1168 C   0  0  0  0  0  0  0  0  0  0  0  0
   15.8148   -0.0835   -2.3955 C   0  0  0  0  0  0  0  0  0  0  0  0
   16.3949   -0.4894   -3.6079 C   0  0  0  0  0  0  0  0  0  0  0  0
   16.5054   -1.8465   -3.9388 C   0  0  0  0  0  0  0  0  0  0  0  0
   16.0401   -2.8367   -3.0545 C   0  0  0  0  0  0  0  0  0  0  0  0
   15.4687   -2.4844   -1.8058 C   0  0  0  0  0  0  0  0  0  0  0  0
   14.8765   -3.4953   -0.7767 C   0  0  1  0  0  0  0  0  0  0  0  0
   15.0969   -5.0253   -0.8826 C   0  0  1  0  0  0  0  0  0  0  0  0
   16.3983   -5.7296   -0.5868 C   0  0  1  0  0  0  0  0  0  0  0  0
   15.1734   -6.0345    0.2404 C   0  0  1  0  0  0  0  0  0  0  0  0
   15.2831   -3.1271    0.5768 N   0  0  0  0  0  0  0  0  0  0  0  0
   14.2456   -2.7938    1.3470 C   0  0  0  0  0  0  0  0  0  0  0  0
   14.3920   -2.4607    2.6335 N   0  0  0  0  0  0  0  0  0  0  0  0
   13.0879   -2.8500    0.6736 N   0  0  0  0  0  0  0  0  0  0  0  0
   11.7608   -2.5496    1.2227 C   0  0  2  0  0  0  0  0  0  0  0  0
   13.3577   -3.2550   -0.6672 C   0  0  0  0  0  0  0  0  0  0  0  0
   12.4975   -3.3906   -1.5423 O   0  0  0  0  0  0  0  0  0  0  0  0
   15.3879   -1.0935   -1.4999 C   0  0  0  0  0  0  0  0  0  0  0  0
   15.6597    1.8544   -0.7971 C   0  0  0  0  0  0  0  0  0  0  0  0
   14.9248    4.8682    2.3123 H   0  0  0  0  0  0  0  0  0  0  0  0
   15.3955    5.6327    0.7976 H   0  0  0  0  0  0  0  0  0  0  0  0
   13.8484    4.8040    0.9119 H   0  0  0  0  0  0  0  0  0  0  0  0
   14.9345    5.1528   -1.3550 H   0  0  0  0  0  0  0  0  0  0  0  0
   14.8807    4.3379   -3.6572 H   0  0  0  0  0  0  0  0  0  0  0  0
   15.3228    1.9594   -4.1830 H   0  0  0  0  0  0  0  0  0  0  0  0
   16.7454    0.2546   -4.3045 H   0  0  0  0  0  0  0  0  0  0  0  0
   16.9433   -2.1069   -4.8912 H   0  0  0  0  0  0  0  0  0  0  0  0
   16.1427   -3.8499   -3.3919 H   0  0  0  0  0  0  0  0  0  0  0  0
   14.5914   -5.4227   -1.7647 H   0  0  0  0  0  0  0  0  0  0  0  0
   16.7342   -6.4886   -1.2907 H   0  0  0  0  0  0  0  0  0  0  0  0
   17.1913   -5.1445   -0.1438 H   0  0  0  0  0  0  0  0  0  0  0  0
   15.1742   -5.6992    1.2670 H   0  0  0  0  0  0  0  0  0  0  0  0
   14.6829   -6.9931    0.0721 H   0  0  0  0  0  0  0  0  0  0  0  0
   16.2616   -3.0818    0.8652 H   0  0  0  0  0  0  0  0  0  0  0  0
   13.6434   -2.1215    3.2365 H   0  0  0  0  0  0  0  0  0  0  0  0
   11.8062   -1.5722    1.6900 H   0  0  0  0  0  0  0  0  0  0  0  0
   11.4779   -3.2829    1.9791 H   0  0  0  0  0  0  0  0  0  0  0  0
   10.9878   -2.5218    0.4540 H   0  0  0  0  0  0  0  0  0  0  0  0
   14.9339   -0.7828   -0.5721 H   0  0  0  0  0  0  0  0  0  0  0  0
   15.8580    1.1777    0.0148 H   0  0  0  0  0  0  0  0  0  0  0  0
   15.3342   -2.4335    3.0256 H   0  0  0  0  0  0  0  0  0  0  0  0
  1  2  1  0
  1 26  1  1
  1 27  1  0
  1 28  1  0
  2  3  1  0
  3  4  2  0
  3 25  1  0
  4  5  1  0
  4 29  1  0
  5  6  2  0
  5 30  1  0
  6  7  1  0
  6 31  1  0
  7  8  1  0
  7 25  2  0
  8  9  2  0
  8 24  1  0
  9 10  1  0
  9 32  1  0
 10 11  2  0
 10 33  1  0
 11 12  1  0
 11 34  1  0
 13 12  1  6
 12 24  2  0
 13 14  1  0
 13 17  1  0
 13 22  1  0
 14 15  1  0
 14 16  1  0
 14 35  1  6
 15 16  1  0
 15 36  1  6
 15 37  1  0
 16 38  1  1
 16 39  1  0
 17 18  2  0
 17 40  1  0
 18 19  1  0
 18 20  1  0
 19 41  1  0
 19 47  1  0
 20 21  1  0
 20 22  1  0
 21 42  1  1
 21 43  1  0
 21 44  1  0
 22 23  2  0
 24 45  1  0
 25 46  1  0
M  CHG  1  17   1
M  END
