17neu
     RDKit          3D

 54 58  0  0  1  0  0  0  0  0999 V2000
  -14.1558  -48.2618  -16.3270 C   0  0  0  0  0  0  0  0  0  0  0  0
  -13.4606  -49.4818  -16.3608 C   0  0  0  0  0  0  0  0  0  0  0  0
  -12.1363  -49.5233  -15.9111 C   0  0  0  0  0  0  0  0  0  0  0  0
  -17.7124  -48.6900  -17.6481 C   0  0  0  0  0  0  0  0  0  0  0  0
  -11.3875  -50.7688  -15.9442 C   0  0  0  0  0  0  0  0  0  0  0  0
  -16.3609  -48.9327  -17.3848 C   0  0  0  0  0  0  0  0  0  0  0  0
  -18.2134  -49.7993  -18.3076 C   0  0  0  0  0  0  0  0  0  0  0  0
  -13.5679  -47.1267  -15.8708 N   0  0  0  0  0  0  0  0  0  0  0  0
  -11.5329  -48.3541  -15.4499 C   0  0  0  0  0  0  0  0  0  0  0  0
  -12.2778  -47.1790  -15.4627 C   0  0  0  0  0  0  0  0  0  0  0  0
  -10.7896  -51.7589  -15.9679 N   0  0  0  0  0  0  0  0  0  0  0  0
  -15.4846  -48.0850  -16.7456 N   0  0  0  0  0  0  0  0  0  0  0  0
  -17.1191  -50.6290  -18.4173 N   0  0  0  0  0  0  0  0  0  0  0  0
  -16.0113  -50.0906  -17.8889 N   0  0  0  0  0  0  0  0  0  0  0  0
  -17.0224  -51.9676  -19.0227 C   0  0  1  0  0  0  0  0  0  0  0  0
  -16.0770  -52.0189  -20.2358 C   0  0  2  0  0  0  0  0  0  0  0  0
  -15.0268  -53.0811  -19.9134 C   0  0  2  0  0  0  0  0  0  0  0  0
  -15.7080  -54.0040  -18.9071 C   0  0  2  0  0  0  0  0  0  0  0  0
  -16.5120  -53.0401  -18.0424 C   0  0  2  0  0  0  0  0  0  0  0  0
  -13.9147  -50.3870  -16.7236 H   0  0  0  0  0  0  0  0  0  0  0  0
  -18.2642  -47.8019  -17.3777 H   0  0  0  0  0  0  0  0  0  0  0  0
  -10.5022  -48.3376  -15.1226 H   0  0  0  0  0  0  0  0  0  0  0  0
  -11.8236  -46.2512  -15.1710 H   0  0  0  0  0  0  0  0  0  0  0  0
  -15.8146  -47.1562  -16.5260 H   0  0  0  0  0  0  0  0  0  0  0  0
  -18.0267  -52.2279  -19.3525 H   0  0  0  0  0  0  0  0  0  0  0  0
  -15.6308  -51.0533  -20.4732 H   0  0  0  0  0  0  0  0  0  0  0  0
  -16.6381  -52.3407  -21.1114 H   0  0  0  0  0  0  0  0  0  0  0  0
  -14.1464  -52.6171  -19.4656 H   0  0  0  0  0  0  0  0  0  0  0  0
  -14.7118  -53.6113  -20.8075 H   0  0  0  0  0  0  0  0  0  0  0  0
  -15.0014  -54.5986  -18.3278 H   0  0  0  0  0  0  0  0  0  0  0  0
  -16.3750  -54.6937  -19.4271 H   0  0  0  0  0  0  0  0  0  0  0  0
  -17.3189  -53.5340  -17.5075 H   0  0  0  0  0  0  0  0  0  0  0  0
  -15.8475  -52.6063  -17.2966 H   0  0  0  0  0  0  0  0  0  0  0  0
  -19.7665  -51.2056  -18.6838 H   0  0  0  0  0  0  0  0  0  0  0  0
  -19.5930  -50.1295  -18.8220 C   0  0  2  0  0  0  0  0  0  0  0  0
  -19.7786  -49.7997  -20.3059 C   0  0  2  0  0  0  0  0  0  0  0  0
  -21.3818  -48.5747  -19.2545 C   0  0  2  0  0  0  0  0  0  0  0  0
  -20.6572  -49.2817  -18.1061 C   0  0  1  0  0  0  0  0  0  0  0  0
  -19.5015  -50.6295  -20.9601 H   0  0  0  0  0  0  0  0  0  0  0  0
  -19.1798  -48.9312  -20.5934 H   0  0  0  0  0  0  0  0  0  0  0  0
  -20.9088  -47.6235  -19.4803 H   0  0  0  0  0  0  0  0  0  0  0  0
  -22.4343  -48.3815  -19.0377 H   0  0  0  0  0  0  0  0  0  0  0  0
  -21.4010  -49.9235  -17.6313 H   0  0  0  0  0  0  0  0  0  0  0  0
  -20.1971  -48.6177  -17.3375 H   0  0  0  0  0  0  0  0  0  0  0  0
  -21.1933  -49.4742  -20.3870 N   0  0  0  0  0  0  0  0  0  0  0  0
  -21.6185  -48.8907  -21.6685 C   0  0  2  0  0  0  0  0  0  0  0  0
  -23.1249  -48.9697  -21.9709 C   0  0  1  0  0  0  0  0  0  0  0  0
  -22.8468  -49.4905  -23.3408 O   0  0  0  0  0  0  0  0  0  0  0  0
  -21.4339  -49.7422  -22.9381 C   0  0  2  0  0  0  0  0  0  0  0  0
  -21.2093  -47.8836  -21.7789 H   0  0  0  0  0  0  0  0  0  0  0  0
  -23.6806  -49.7275  -21.4142 H   0  0  0  0  0  0  0  0  0  0  0  0
  -23.6646  -48.0245  -22.0349 H   0  0  0  0  0  0  0  0  0  0  0  0
  -21.2968  -50.8137  -22.7821 H   0  0  0  0  0  0  0  0  0  0  0  0
  -20.7604  -49.3433  -23.6977 H   0  0  0  0  0  0  0  0  0  0  0  0
  1  2  1  0
  1  8  2  0
  1 12  1  0
  2  3  2  0
  2 20  1  0
  3  5  1  0
  3  9  1  0
  4  6  1  0
  4  7  2  0
  4 21  1  0
  5 11  3  0
  6 12  1  0
  6 14  2  0
  7 13  1  0
  7 35  1  0
  8 10  1  0
  9 10  2  0
  9 22  1  0
 10 23  1  0
 12 24  1  0
 13 14  1  0
 13 15  1  0
 15 16  1  0
 15 19  1  0
 15 25  1  6
 16 17  1  0
 16 26  1  6
 16 27  1  0
 17 18  1  0
 17 28  1  1
 17 29  1  0
 18 19  1  0
 18 30  1  1
 18 31  1  0
 19 32  1  1
 19 33  1  0
 35 34  1  6
 35 36  1  0
 35 38  1  0
 36 39  1  6
 36 40  1  0
 36 45  1  0
 37 38  1  0
 37 41  1  6
 37 42  1  0
 37 45  1  0
 38 43  1  1
 38 44  1  0
 45 46  1  0
 46 47  1  0
 46 49  1  0
 46 50  1  6
 47 48  1  0
 47 51  1  1
 47 52  1  0
 48 49  1  0
 49 53  1  1
 49 54  1  0
M  END
