4
     RDKit          3D

 27 28  0  0  1  0  0  0  0  0999 V2000
    2.8934    7.9934   32.5150 N   0  0  0  0  0  0  0  0  0  0  0  0
    2.0285    8.4106   31.5100 C   0  0  0  0  0  0  0  0  0  0  0  0
    0.9862    7.6003   31.2351 N   0  0  0  0  0  0  0  0  0  0  0  0
    0.1271    7.9939   30.2713 C   0  0  0  0  0  0  0  0  0  0  0  0
    0.2812    9.1871   29.5379 C   0  0  0  0  0  0  0  0  0  0  0  0
    1.3835   10.0167   29.8212 C   0  0  0  0  0  0  0  0  0  0  0  0
    2.2922    9.6177   30.8290 C   0  0  0  0  0  0  0  0  0  0  0  0
    3.4175   10.3182   31.1960 O   0  0  0  0  0  0  0  0  0  0  0  0
    3.9044   11.3550   30.3613 C   0  0  2  0  0  0  0  0  0  0  0  0
    5.3505   11.6286   30.7510 C   0  0  0  0  0  0  0  0  0  0  0  0
    5.6837   12.6443   31.6786 C   0  0  0  0  0  0  0  0  0  0  0  0
    7.0121   12.7928   32.1258 C   0  0  0  0  0  0  0  0  0  0  0  0
    8.0199   11.9395   31.6416 C   0  0  0  0  0  0  0  0  0  0  0  0
    7.7021   10.9509   30.6960 C   0  0  0  0  0  0  0  0  0  0  0  0
    6.3788   10.7976   30.2514 C   0  0  0  0  0  0  0  0  0  0  0  0
    3.7729    8.4822   32.6234 H   0  0  0  0  0  0  0  0  0  0  0  0
    2.8944    7.0188   32.7925 H   0  0  0  0  0  0  0  0  0  0  0  0
   -0.7067    7.3363   30.0767 H   0  0  0  0  0  0  0  0  0  0  0  0
   -0.4352    9.4640   28.7793 H   0  0  0  0  0  0  0  0  0  0  0  0
    1.5132   10.9373   29.2708 H   0  0  0  0  0  0  0  0  0  0  0  0
    3.2771   12.2398   30.4678 H   0  0  0  0  0  0  0  0  0  0  0  0
    3.8558   11.0781   29.3074 H   0  0  0  0  0  0  0  0  0  0  0  0
    4.4948   13.7447   32.2607 Cl  0  0  0  0  0  0  0  0  0  0  0  0
    7.2625   13.5676   32.8366 H   0  0  0  0  0  0  0  0  0  0  0  0
    9.0394   12.0491   31.9804 H   0  0  0  0  0  0  0  0  0  0  0  0
    8.4769   10.3017   30.3125 H   0  0  0  0  0  0  0  0  0  0  0  0
    6.0571    9.5938   29.0673 Cl  0  0  0  0  0  0  0  0  0  0  0  0
  1  2  1  0
  1 16  1  0
  1 17  1  0
  2  3  1  0
  2  7  2  0
  3  4  2  0
  4  5  1  0
  4 18  1  0
  5  6  2  0
  5 19  1  0
  6  7  1  0
  6 20  1  0
  7  8  1  0
  8  9  1  0
  9 10  1  0
  9 21  1  6
  9 22  1  0
 10 11  1  0
 10 15  2  0
 11 12  2  0
 11 23  1  0
 12 13  1  0
 12 24  1  0
 13 14  2  0
 13 25  1  0
 14 15  1  0
 14 26  1  0
 15 27  1  0
M  END
