1_1W7H
     RDKit          3D

 27 28  0  0  1  0  0  0  0  0999 V2000
    2.7910    7.9934   32.5101 N   0  0  0  0  0  0  0  0  0  0  0  0
    1.9384    8.3991   31.4901 C   0  0  0  0  0  0  0  0  0  0  0  0
    0.8943    7.5939   31.2094 N   0  0  0  0  0  0  0  0  0  0  0  0
    0.0513    7.9870   30.2302 C   0  0  0  0  0  0  0  0  0  0  0  0
    0.2251    9.1707   29.4854 C   0  0  0  0  0  0  0  0  0  0  0  0
    1.3323    9.9915   29.7741 C   0  0  0  0  0  0  0  0  0  0  0  0
    2.2218    9.5933   30.7984 C   0  0  0  0  0  0  0  0  0  0  0  0
    3.3515   10.2827   31.1697 O   0  0  0  0  0  0  0  0  0  0  0  0
    3.9135   11.2125   30.2644 C   0  0  2  0  0  0  0  0  0  0  0  0
    5.3499   11.4610   30.6659 C   0  0  0  0  0  0  0  0  0  0  0  0
    6.3680   10.6192   30.1723 C   0  0  0  0  0  0  0  0  0  0  0  0
    7.6956   10.7934   30.6031 C   0  0  0  0  0  0  0  0  0  0  0  0
    8.0106   11.8071   31.5283 C   0  0  0  0  0  0  0  0  0  0  0  0
    6.9942   12.6435   32.0303 C   0  0  0  0  0  0  0  0  0  0  0  0
    5.6637   12.4691   31.6009 C   0  0  0  0  0  0  0  0  0  0  0  0
    3.6545    8.5044   32.6368 H   0  0  0  0  0  0  0  0  0  0  0  0
    2.8179    7.0165   32.7816 H   0  0  0  0  0  0  0  0  0  0  0  0
   -0.7852    7.3335   30.0306 H   0  0  0  0  0  0  0  0  0  0  0  0
   -0.4806    9.4440   28.7155 H   0  0  0  0  0  0  0  0  0  0  0  0
    1.4814   10.9041   29.2158 H   0  0  0  0  0  0  0  0  0  0  0  0
    3.3470   12.1441   30.2838 H   0  0  0  0  0  0  0  0  0  0  0  0
    3.8951   10.8324   29.2407 H   0  0  0  0  0  0  0  0  0  0  0  0
    6.1320    9.8235   29.4799 H   0  0  0  0  0  0  0  0  0  0  0  0
    8.4710   10.1389   30.2330 H   0  0  0  0  0  0  0  0  0  0  0  0
    9.0295   11.9343   31.8627 H   0  0  0  0  0  0  0  0  0  0  0  0
    7.2349   13.4136   32.7498 H   0  0  0  0  0  0  0  0  0  0  0  0
    4.8809   13.0933   32.0092 H   0  0  0  0  0  0  0  0  0  0  0  0
  1  2  1  0
  1 16  1  0
  1 17  1  0
  2  3  1  0
  2  7  2  0
  3  4  2  0
  4  5  1  0
  4 18  1  0
  5  6  2  0
  5 19  1  0
  6  7  1  0
  6 20  1  0
  7  8  1  0
  8  9  1  0
  9 10  1  0
  9 21  1  6
  9 22  1  0
 10 11  1  0
 10 15  2  0
 11 12  2  0
 11 23  1  0
 12 13  1  0
 12 24  1  0
 13 14  2  0
 13 25  1  0
 14 15  1  0
 14 26  1  0
 15 27  1  0
M  END
