5_1WBW
     RDKit          3D

 33 35  0  0  1  0  0  0  0  0999 V2000
   -0.4488    9.2376   29.6667 C   0  0  0  0  0  0  0  0  0  0  0  0
    0.4772   10.1888   30.1431 C   0  0  0  0  0  0  0  0  0  0  0  0
    1.5124    9.7636   31.0120 C   0  0  0  0  0  0  0  0  0  0  0  0
    1.5337    8.4104   31.3836 C   0  0  0  0  0  0  0  0  0  0  0  0
   -0.3139    7.9051   30.0803 C   0  0  0  0  0  0  0  0  0  0  0  0
    2.4894   10.5925   31.5205 O   0  0  0  0  0  0  0  0  0  0  0  0
    2.5236    7.9553   32.2495 N   0  0  0  0  0  0  0  0  0  0  0  0
    5.2790   10.3950   30.0736 C   0  0  0  0  0  0  0  0  0  0  0  0
    5.3494   11.5228   30.9363 C   0  0  0  0  0  0  0  0  0  0  0  0
    6.6152   11.9063   31.4493 C   0  0  0  0  0  0  0  0  0  0  0  0
    7.7757   11.1747   31.1166 C   0  0  0  0  0  0  0  0  0  0  0  0
    7.6825   10.0467   30.2714 C   0  0  0  0  0  0  0  0  0  0  0  0
    6.4396    9.6694   29.7447 C   0  0  0  0  0  0  0  0  0  0  0  0
    4.1897   12.2539   31.2898 C   0  0  0  0  0  0  0  0  0  0  0  0
    4.3286   13.3937   32.1130 C   0  0  0  0  0  0  0  0  0  0  0  0
    5.5757   13.7614   32.6460 C   0  0  0  0  0  0  0  0  0  0  0  0
    6.7245   13.0193   32.3143 C   0  0  0  0  0  0  0  0  0  0  0  0
    0.6550    7.4886   30.9268 N   0  0  0  0  0  0  0  0  0  0  0  0
    2.7899   11.8207   30.8827 C   0  0  2  0  0  0  0  0  0  0  0  0
   -1.2445    9.5271   29.0035 H   0  0  0  0  0  0  0  0  0  0  0  0
    0.3814   11.2168   29.8410 H   0  0  0  0  0  0  0  0  0  0  0  0
   -0.9854    7.1391   29.7160 H   0  0  0  0  0  0  0  0  0  0  0  0
    2.6798    6.9725   32.4283 H   0  0  0  0  0  0  0  0  0  0  0  0
    3.2434    8.5992   32.5455 H   0  0  0  0  0  0  0  0  0  0  0  0
    4.3382   10.0636   29.6674 H   0  0  0  0  0  0  0  0  0  0  0  0
    8.7367   11.4552   31.5249 H   0  0  0  0  0  0  0  0  0  0  0  0
    8.5429    9.4433   30.0685 H   0  0  0  0  0  0  0  0  0  0  0  0
    6.3681    8.7961   29.1093 H   0  0  0  0  0  0  0  0  0  0  0  0
    3.4550   13.9750   32.3571 H   0  0  0  0  0  0  0  0  0  0  0  0
    5.6457   14.6159   33.3069 H   0  0  0  0  0  0  0  0  0  0  0  0
    7.6830   13.3201   32.7123 H   0  0  0  0  0  0  0  0  0  0  0  0
    2.0570   12.5788   31.1781 H   0  0  0  0  0  0  0  0  0  0  0  0
    2.7686   11.7392   29.7922 H   0  0  0  0  0  0  0  0  0  0  0  0
  1  2  1  0
  1  5  2  0
  1 20  1  0
  2  3  2  0
  2 21  1  0
  3  4  1  0
  3  6  1  0
  4  7  1  0
  4 18  2  0
  5 18  1  0
  5 22  1  0
  6 19  1  0
  7 23  1  0
  7 24  1  0
  8  9  1  0
  8 13  2  0
  8 25  1  0
  9 10  1  0
  9 14  2  0
 10 11  1  0
 10 17  2  0
 11 12  2  0
 11 26  1  0
 12 13  1  0
 12 27  1  0
 13 28  1  0
 14 15  1  0
 14 19  1  0
 15 16  2  0
 15 29  1  0
 16 17  1  0
 16 30  1  0
 17 31  1  0
 19 32  1  1
 19 33  1  0
M  END
