6
     RDKit          3D

 34 35  0  0  1  0  0  0  0  0999 V2000
    1.6704    8.0093   31.3070 C   0  0  0  0  0  0  0  0  0  0  0  0
    0.4928    7.4824   30.9037 N   0  0  0  0  0  0  0  0  0  0  0  0
   -0.4075    8.2832   30.3032 C   0  0  0  0  0  0  0  0  0  0  0  0
   -0.1893    9.6740   30.1236 C   0  0  0  0  0  0  0  0  0  0  0  0
    1.0278   10.2124   30.5501 C   0  0  0  0  0  0  0  0  0  0  0  0
    2.0039    9.3671   31.1413 C   0  0  0  0  0  0  0  0  0  0  0  0
    3.2558    9.7619   31.5422 O   0  0  0  0  0  0  0  0  0  0  0  0
    3.6655   11.0689   31.1795 C   0  0  2  0  0  0  0  0  0  0  0  0
    5.1738   11.1805   31.2934 C   0  0  0  0  0  0  0  0  0  0  0  0
    5.7828   11.6987   32.4603 C   0  0  0  0  0  0  0  0  0  0  0  0
    7.1919   11.7598   32.5444 C   0  0  0  0  0  0  0  0  0  0  0  0
    7.9945   11.3317   31.4691 C   0  0  0  0  0  0  0  0  0  0  0  0
    7.3928   10.7927   30.3124 C   0  0  0  0  0  0  0  0  0  0  0  0
    5.9828   10.7055   30.2304 C   0  0  0  0  0  0  0  0  0  0  0  0
   -0.9049   10.3664   29.6773 H   0  0  0  0  0  0  0  0  0  0  0  0
    1.2004   11.2821   30.4164 H   0  0  0  0  0  0  0  0  0  0  0  0
    3.1648   11.8083   31.8094 H   0  0  0  0  0  0  0  0  0  0  0  0
    3.3967   11.3125   30.1469 H   0  0  0  0  0  0  0  0  0  0  0  0
    4.8539   12.2284   33.8183 Cl  0  0  0  0  0  0  0  0  0  0  0  0
    7.6489   12.1358   33.4442 H   0  0  0  0  0  0  0  0  0  0  0  0
    9.0782   11.3805   31.5587 H   0  0  0  0  0  0  0  0  0  0  0  0
    8.0129   10.4210   29.4985 H   0  0  0  0  0  0  0  0  0  0  0  0
    5.2954    9.9928   28.8097 Cl  0  0  0  0  0  0  0  0  0  0  0  0
    2.3692    7.3205   31.7635 H   0  0  0  0  0  0  0  0  0  0  0  0
   -1.5573    7.6057   29.8692 N   0  0  0  0  0  0  0  0  0  0  0  0
   -1.7152    6.6813   30.2865 H   0  0  0  0  0  0  0  0  0  0  0  0
   -2.7344    8.3437   29.4235 C   0  0  1  0  0  0  0  0  0  0  0  0
   -2.4385    9.1680   28.7758 H   0  0  0  0  0  0  0  0  0  0  0  0
   -3.3347    7.6564   28.8111 H   0  0  0  0  0  0  0  0  0  0  0  0
   -3.5785    8.8358   30.6055 C   0  0  1  0  0  0  0  0  0  0  0  0
   -3.9592    7.9884   31.1883 H   0  0  0  0  0  0  0  0  0  0  0  0
   -2.9885    9.4703   31.2819 H   0  0  0  0  0  0  0  0  0  0  0  0
   -4.6761    9.5793   30.1050 O   0  0  0  0  0  0  0  0  0  0  0  0
   -4.5021   10.4982   30.2984 H   0  0  0  0  0  0  0  0  0  0  0  0
  1  2  1  0
  1  6  2  0
  1 24  1  0
  2  3  2  0
  3  4  1  0
  3 25  1  0
  4  5  2  0
  4 15  1  0
  5  6  1  0
  5 16  1  0
  6  7  1  0
  7  8  1  0
  8  9  1  0
  8 17  1  1
  8 18  1  0
  9 10  1  0
  9 14  2  0
 10 11  2  0
 10 19  1  0
 11 12  1  0
 11 20  1  0
 12 13  2  0
 12 21  1  0
 13 14  1  0
 13 22  1  0
 14 23  1  0
 25 26  1  0
 25 27  1  0
 27 28  1  6
 27 29  1  0
 27 30  1  0
 30 31  1  1
 30 32  1  0
 30 33  1  0
 33 34  1  0
M  END
