13 flipped
     RDKit          3D

 47 50  0  0  1  0  0  0  0  0999 V2000
   -2.2088   12.9419  -10.9697 C   0  0  1  0  0  0  0  0  0  0  0  0
   -2.1904   14.4671  -10.9424 C   0  0  1  0  0  0  0  0  0  0  0  0
   -3.6992   12.5876  -10.8377 C   0  0  2  0  0  0  0  0  0  0  0  0
   -1.6826   12.4744  -12.1795 O   0  0  0  0  0  0  0  0  0  0  0  0
   -3.5107   14.9139  -11.6089 C   0  0  2  0  0  0  0  0  0  0  0  0
   -4.3443   13.7200  -11.5243 N   0  0  0  0  0  0  0  0  0  0  0  0
   -6.3525   12.3601  -12.0338 C   0  0  0  0  0  0  0  0  0  0  0  0
   -6.9727   11.7556  -13.1375 C   0  0  0  0  0  0  0  0  0  0  0  0
   -7.7097   10.5633  -13.0339 C   0  0  0  0  0  0  0  0  0  0  0  0
   -6.5001   11.8056  -10.7491 C   0  0  0  0  0  0  0  0  0  0  0  0
   -6.8506   12.3073  -14.3824 O   0  0  0  0  0  0  0  0  0  0  0  0
   -5.5377   13.6382  -12.2001 C   0  0  0  0  0  0  0  0  0  0  0  0
   -5.9500   14.5444  -12.9177 O   0  0  0  0  0  0  0  0  0  0  0  0
   -7.2308   10.6159  -10.6131 C   0  0  0  0  0  0  0  0  0  0  0  0
   -7.8083   10.0113  -11.7524 C   0  0  0  0  0  0  0  0  0  0  0  0
   -8.4200    8.8675  -11.2880 N   0  0  0  0  0  0  0  0  0  0  0  0
   -8.2847    8.7400   -9.9757 N   0  0  0  0  0  0  0  0  0  0  0  0
   -7.6047    9.7473   -9.5145 C   0  0  0  0  0  0  0  0  0  0  0  0
   -7.3264    9.8951   -8.0245 C   0  0  1  0  0  0  0  0  0  0  0  0
   -5.9604   10.4805   -7.7353 C   0  0  0  0  0  0  0  0  0  0  0  0
   -5.8470   11.7542   -7.1766 C   0  0  0  0  0  0  0  0  0  0  0  0
   -3.4373   11.5442   -7.1600 C   0  0  0  0  0  0  0  0  0  0  0  0
   -3.5426   10.2718   -7.7211 C   0  0  0  0  0  0  0  0  0  0  0  0
   -4.5867   12.2834   -6.8896 C   0  0  0  0  0  0  0  0  0  0  0  0
   -4.8052    9.7407   -8.0121 C   0  0  0  0  0  0  0  0  0  0  0  0
   -2.2935    9.4584   -8.0044 C   0  0  2  0  0  0  0  0  0  0  0  0
   -1.6125   12.4839  -10.1621 H   0  0  0  0  0  0  0  0  0  0  0  0
   -2.1549   14.8184   -9.9245 H   0  0  0  0  0  0  0  0  0  0  0  0
   -1.3157   14.8975  -11.4569 H   0  0  0  0  0  0  0  0  0  0  0  0
   -3.9463   12.5683   -9.7744 H   0  0  0  0  0  0  0  0  0  0  0  0
   -3.8737   11.6025  -11.2997 H   0  0  0  0  0  0  0  0  0  0  0  0
   -0.8317   12.8970  -12.3310 H   0  0  0  0  0  0  0  0  0  0  0  0
   -3.3143   15.2104  -12.6382 H   0  0  0  0  0  0  0  0  0  0  0  0
   -3.9412   15.7445  -11.0416 H   0  0  0  0  0  0  0  0  0  0  0  0
   -8.1761   10.1015  -13.8960 H   0  0  0  0  0  0  0  0  0  0  0  0
   -6.0592   12.2786   -9.8757 H   0  0  0  0  0  0  0  0  0  0  0  0
   -7.3831   11.8565  -15.0461 H   0  0  0  0  0  0  0  0  0  0  0  0
   -8.9260    8.1741  -11.8308 H   0  0  0  0  0  0  0  0  0  0  0  0
   -8.0952   10.5284   -7.5802 H   0  0  0  0  0  0  0  0  0  0  0  0
   -7.4226    8.9158   -7.5190 H   0  0  0  0  0  0  0  0  0  0  0  0
   -6.7317   12.3326   -6.9569 H   0  0  0  0  0  0  0  0  0  0  0  0
   -2.4650   11.9593   -6.9351 H   0  0  0  0  0  0  0  0  0  0  0  0
   -4.5001   13.2736   -6.4548 H   0  0  0  0  0  0  0  0  0  0  0  0
   -4.8865    8.7524   -8.4437 H   0  0  0  0  0  0  0  0  0  0  0  0
   -1.4855    9.7349   -7.3283 H   0  0  0  0  0  0  0  0  0  0  0  0
   -1.9598    9.6000   -9.0353 H   0  0  0  0  0  0  0  0  0  0  0  0
   -2.4867    8.4007   -7.8399 H   0  0  0  0  0  0  0  0  0  0  0  0
  1  2  1  0
  1  3  1  0
  1  4  1  0
  1 27  1  1
  2  5  1  0
  2 28  1  1
  2 29  1  0
  3  6  1  0
  3 30  1  1
  3 31  1  0
  4 32  1  0
  5  6  1  0
  5 33  1  6
  5 34  1  0
  6 12  1  0
  7  8  2  0
  7 10  1  0
  7 12  1  0
  8  9  1  0
  8 11  1  0
  9 15  2  0
  9 35  1  0
 10 14  2  0
 10 36  1  0
 11 37  1  0
 12 13  2  0
 14 15  1  0
 14 18  1  0
 15 16  1  0
 16 17  1  0
 16 38  1  0
 17 18  2  0
 18 19  1  0
 19 20  1  0
 19 39  1  1
 19 40  1  0
 20 21  2  0
 20 25  1  0
 21 24  1  0
 21 41  1  0
 22 23  1  0
 22 24  2  0
 22 42  1  0
 23 25  2  0
 23 26  1  0
 24 43  1  0
 25 44  1  0
 26 45  1  1
 26 46  1  0
 26 47  1  0
M  END
