17 flipped
     RDKit          3D

 41 44  0  0  1  0  0  0  0  0999 V2000
   -6.3808   12.3686  -12.0119 C   0  0  0  0  0  0  0  0  0  0  0  0
   -6.5112   11.8116  -10.7365 C   0  0  0  0  0  0  0  0  0  0  0  0
   -7.7301   10.5824  -13.0300 C   0  0  0  0  0  0  0  0  0  0  0  0
   -6.9992   11.7782  -13.1263 C   0  0  0  0  0  0  0  0  0  0  0  0
   -7.8250   10.0166  -11.7542 C   0  0  0  0  0  0  0  0  0  0  0  0
   -7.2407   10.6266  -10.6010 C   0  0  0  0  0  0  0  0  0  0  0  0
   -7.6094    9.7513   -9.5103 C   0  0  0  0  0  0  0  0  0  0  0  0
   -8.2849    8.7404   -9.9846 N   0  0  0  0  0  0  0  0  0  0  0  0
   -8.4192    8.8674  -11.2983 N   0  0  0  0  0  0  0  0  0  0  0  0
   -7.3225    9.8872   -8.0242 C   0  0  1  0  0  0  0  0  0  0  0  0
   -4.3834   13.6199  -11.4933 N   0  0  0  0  0  0  0  0  0  0  0  0
   -3.4237   14.7282  -11.5789 C   0  0  2  0  0  0  0  0  0  0  0  0
   -5.5369   13.6139  -12.1980 C   0  0  0  0  0  0  0  0  0  0  0  0
   -5.8771   14.5161  -12.9653 O   0  0  0  0  0  0  0  0  0  0  0  0
   -5.9516   10.5005   -7.7272 C   0  0  0  0  0  0  0  0  0  0  0  0
   -4.7970    9.7773   -8.0349 C   0  0  0  0  0  0  0  0  0  0  0  0
   -3.5576   10.3550   -7.7339 C   0  0  0  0  0  0  0  0  0  0  0  0
   -3.5061   11.6554   -7.1380 C   0  0  0  0  0  0  0  0  0  0  0  0
   -4.6576   12.3898   -6.8380 C   0  0  0  0  0  0  0  0  0  0  0  0
   -5.8800   11.7731   -7.1463 C   0  0  0  0  0  0  0  0  0  0  0  0
   -2.1721    9.9772   -7.8667 N   0  0  0  0  0  0  0  0  0  0  0  0
   -1.3991   10.9239   -7.4086 N   0  0  0  0  0  0  0  0  0  0  0  0
   -2.1635   11.9238   -6.9783 C   0  0  0  0  0  0  0  0  0  0  0  0
   -6.0562   12.2861   -9.8790 H   0  0  0  0  0  0  0  0  0  0  0  0
   -8.1818   10.1228  -13.8979 H   0  0  0  0  0  0  0  0  0  0  0  0
   -6.8754   12.2375  -14.0963 H   0  0  0  0  0  0  0  0  0  0  0  0
   -8.9135    8.1599  -11.8328 H   0  0  0  0  0  0  0  0  0  0  0  0
   -8.0847   10.5486   -7.6052 H   0  0  0  0  0  0  0  0  0  0  0  0
   -7.4513    8.9399   -7.4976 H   0  0  0  0  0  0  0  0  0  0  0  0
   -4.1150   12.8057  -10.9566 H   0  0  0  0  0  0  0  0  0  0  0  0
   -2.8208   14.7394  -10.6724 H   0  0  0  0  0  0  0  0  0  0  0  0
   -3.8878   15.7111  -11.6718 H   0  0  0  0  0  0  0  0  0  0  0  0
   -2.7196   14.6037  -12.4046 H   0  0  0  0  0  0  0  0  0  0  0  0
   -4.8624    8.7997   -8.4841 H   0  0  0  0  0  0  0  0  0  0  0  0
   -4.6128   13.3797   -6.3969 H   0  0  0  0  0  0  0  0  0  0  0  0
   -6.7994   12.2945   -6.9302 H   0  0  0  0  0  0  0  0  0  0  0  0
   -1.8481   12.8615   -6.5452 H   0  0  0  0  0  0  0  0  0  0  0  0
   -1.8057    8.6328   -8.4738 C   0  0  1  0  0  0  0  0  0  0  0  0
   -0.7212    8.5249   -8.4914 H   0  0  0  0  0  0  0  0  0  0  0  0
   -2.2403    7.8325   -7.8748 H   0  0  0  0  0  0  0  0  0  0  0  0
   -2.1926    8.5755   -9.4912 H   0  0  0  0  0  0  0  0  0  0  0  0
  1  2  2  0
  1  4  1  0
  1 13  1  0
  2  6  1  0
  2 24  1  0
  3  4  2  0
  3  5  1  0
  3 25  1  0
  4 26  1  0
  5  6  2  0
  5  9  1  0
  6  7  1  0
  7  8  2  0
  7 10  1  0
  8  9  1  0
  9 27  1  0
 10 15  1  0
 10 28  1  1
 10 29  1  0
 11 12  1  0
 11 13  1  0
 11 30  1  0
 12 31  1  1
 12 32  1  0
 12 33  1  0
 13 14  2  0
 15 16  2  0
 15 20  1  0
 16 17  1  0
 16 34  1  0
 17 18  2  0
 17 21  1  0
 18 19  1  0
 18 23  1  0
 19 20  2  0
 19 35  1  0
 20 36  1  0
 21 22  1  0
 21 38  1  0
 22 23  2  0
 23 37  1  0
 38 39  1  6
 38 40  1  0
 38 41  1  0
M  END
