20705_cys
     RDKit          3D

 67 71  0  0  1  0  0  0  0  0999 V2000
   -0.7477    8.1561   18.6794 C   0  0  1  0  0  0  0  0  0  0  0  0
    0.6031    8.1917   19.2465 N   0  0  0  0  0  0  0  0  0  0  0  0
    1.6853    7.9007   18.3028 C   0  0  1  0  0  0  0  0  0  0  0  0
    0.7988    8.5327   20.5436 C   0  0  0  0  0  0  0  0  0  0  0  0
   -0.1349    8.8746   21.2718 O   0  0  0  0  0  0  0  0  0  0  0  0
    2.2182    8.4824   21.1509 C   0  0  1  0  0  0  0  0  0  0  0  0
    2.8113    9.9111   21.2532 C   0  0  1  0  0  0  0  0  0  0  0  0
    4.2181    9.9048   21.8815 C   0  0  1  0  0  0  0  0  0  0  0  0
    4.2378    9.1761   23.2440 C   0  0  2  0  0  0  0  0  0  0  0  0
    5.6004    9.1552   23.7698 N   0  0  0  0  0  0  0  0  0  0  0  0
    5.9662    9.2970   25.0526 C   0  0  0  0  0  0  0  0  0  0  0  0
    5.1685    9.4677   25.9730 O   0  0  0  0  0  0  0  0  0  0  0  0
    7.4435    9.2035   25.3244 C   0  0  0  0  0  0  0  0  0  0  0  0
    7.9004    8.5897   26.4894 C   0  0  0  0  0  0  0  0  0  0  0  0
    9.2842    8.4245   26.7061 C   0  0  0  0  0  0  0  0  0  0  0  0
    9.8111    7.7770   27.8421 C   0  0  0  0  0  0  0  0  0  0  0  0
   11.1821    7.6164   27.9978 C   0  0  0  0  0  0  0  0  0  0  0  0
   12.0575    8.0592   27.0140 C   0  0  0  0  0  0  0  0  0  0  0  0
   13.7536    7.7974   27.1891 Cl  0  0  0  0  0  0  0  0  0  0  0  0
   11.5677    8.7116   25.8901 C   0  0  0  0  0  0  0  0  0  0  0  0
   10.1832    8.9222   25.7215 C   0  0  0  0  0  0  0  0  0  0  0  0
    9.6225    9.5826   24.6088 C   0  0  0  0  0  0  0  0  0  0  0  0
    8.2952    9.7250   24.4008 N   0  0  0  0  0  0  0  0  0  0  0  0
    3.6260    7.7457   23.1737 C   0  0  2  0  0  0  0  0  0  0  0  0
    4.4768    6.8192   22.4094 N   0  0  0  0  0  0  0  0  0  0  0  0
    4.4837    5.4751   22.5114 C   0  0  0  0  0  0  0  0  0  0  0  0
    3.7511    4.8664   23.2933 O   0  0  0  0  0  0  0  0  0  0  0  0
    5.4355    4.7847   21.6158 C   0  0  0  0  0  0  0  0  0  0  0  0
    6.2593    5.3788   20.7571 N   0  0  0  0  0  0  0  0  0  0  0  0
    6.9494    4.4673   20.1166 C   0  0  0  0  0  0  0  0  0  0  0  0
    7.9702    4.5720   19.0436 C   0  0  1  0  0  0  0  0  0  0  0  0
    8.0429    3.1732   18.4636 N   0  0  1  0  0  0  0  0  0  0  0  0
    9.3528    2.8311   17.8712 C   0  0  1  0  0  0  0  0  0  0  0  0
    7.5186    2.2508   19.5412 C   0  0  1  0  0  0  0  0  0  0  0  0
    6.7335    3.1618   20.3944 C   0  0  0  0  0  0  0  0  0  0  0  0
    5.5320    3.0171   21.6210 S   0  0  0  0  0  0  0  0  0  0  0  0
    2.2111    7.8056   22.5510 C   0  0  1  0  0  0  0  0  0  0  0  0
   -0.7955    7.5593   17.7679 H   0  0  0  0  0  0  0  0  0  0  0  0
   -1.4649    7.7180   19.3756 H   0  0  0  0  0  0  0  0  0  0  0  0
   -1.0813    9.1661   18.4389 H   0  0  0  0  0  0  0  0  0  0  0  0
    1.3412    7.9000   17.2680 H   0  0  0  0  0  0  0  0  0  0  0  0
    2.4765    8.6491   18.3648 H   0  0  0  0  0  0  0  0  0  0  0  0
    2.1162    6.9199   18.5070 H   0  0  0  0  0  0  0  0  0  0  0  0
    2.8741    7.8837   20.5216 H   0  0  0  0  0  0  0  0  0  0  0  0
    2.8637   10.3684   20.2642 H   0  0  0  0  0  0  0  0  0  0  0  0
    2.1563   10.5473   21.8509 H   0  0  0  0  0  0  0  0  0  0  0  0
    4.9187    9.4281   21.1946 H   0  0  0  0  0  0  0  0  0  0  0  0
    4.5618   10.9327   22.0023 H   0  0  0  0  0  0  0  0  0  0  0  0
    3.5991    9.7281   23.9366 H   0  0  0  0  0  0  0  0  0  0  0  0
    6.3416    9.0002   23.1023 H   0  0  0  0  0  0  0  0  0  0  0  0
    7.2135    8.2232   27.2381 H   0  0  0  0  0  0  0  0  0  0  0  0
    9.1526    7.3965   28.6088 H   0  0  0  0  0  0  0  0  0  0  0  0
   11.5710    7.1448   28.8884 H   0  0  0  0  0  0  0  0  0  0  0  0
   12.2518    9.0638   25.1315 H   0  0  0  0  0  0  0  0  0  0  0  0
   10.2542   10.0174   23.8481 H   0  0  0  0  0  0  0  0  0  0  0  0
    3.5627    7.3646   24.1950 H   0  0  0  0  0  0  0  0  0  0  0  0
    5.1224    7.2299   21.7500 H   0  0  0  0  0  0  0  0  0  0  0  0
    7.6874    5.2803   18.2646 H   0  0  0  0  0  0  0  0  0  0  0  0
    8.9361    4.8681   19.4555 H   0  0  0  0  0  0  0  0  0  0  0  0
    9.3161    1.8447   17.4076 H   0  0  0  0  0  0  0  0  0  0  0  0
    9.6252    3.5552   17.1027 H   0  0  0  0  0  0  0  0  0  0  0  0
   10.1363    2.8247   18.6302 H   0  0  0  0  0  0  0  0  0  0  0  0
    6.8980    1.4609   19.1174 H   0  0  0  0  0  0  0  0  0  0  0  0
    8.3252    1.8006   20.1217 H   0  0  0  0  0  0  0  0  0  0  0  0
    1.5600    8.3608   23.2282 H   0  0  0  0  0  0  0  0  0  0  0  0
    1.7861    6.8029   22.4831 H   0  0  0  0  0  0  0  0  0  0  0  0
    7.3686    3.1605   17.7115 H   0  0  0  0  0  0  0  0  0  0  0  0
  1  2  1  0
  1 38  1  6
  1 39  1  0
  1 40  1  0
  2  3  1  0
  2  4  1  0
  3 41  1  6
  3 42  1  0
  3 43  1  0
  4  5  2  0
  4  6  1  0
  6 37  1  0
  6  7  1  0
  6 44  1  6
  7  8  1  0
  7 45  1  6
  7 46  1  0
  8  9  1  0
  8 47  1  6
  8 48  1  0
  9 10  1  0
  9 24  1  0
  9 49  1  1
 10 11  1  0
 10 50  1  0
 11 12  2  0
 11 13  1  0
 13 23  1  0
 13 14  2  0
 14 15  1  0
 14 51  1  0
 15 21  2  0
 15 16  1  0
 16 17  2  0
 16 52  1  0
 17 18  1  0
 17 53  1  0
 18 19  1  0
 18 20  2  0
 20 21  1  0
 20 54  1  0
 21 22  1  0
 22 23  2  0
 22 55  1  0
 24 25  1  0
 24 37  1  0
 24 56  1  1
 25 26  1  0
 25 57  1  0
 26 27  2  0
 26 28  1  0
 28 36  1  0
 28 29  2  0
 29 30  1  0
 30 35  2  0
 30 31  1  0
 31 32  1  0
 31 58  1  6
 31 59  1  0
 32 33  1  0
 32 34  1  0
 32 67  1  6
 33 60  1  6
 33 61  1  0
 33 62  1  0
 34 35  1  0
 34 63  1  6
 34 64  1  0
 35 36  1  0
 37 65  1  1
 37 66  1  0
M  CHG  1  32   1
M  END
