23864
     RDKit          3D

 44 46  0  0  1  0  0  0  0  0999 V2000
    7.3185   10.2240   19.8731 N   0  0  0  0  0  0  0  0  0  0  0  0
    6.0300   10.0223   20.1468 C   0  0  0  0  0  0  0  0  0  0  0  0
    5.4583   10.6193   21.0557 O   0  0  0  0  0  0  0  0  0  0  0  0
    5.4829    9.1070   19.3277 N   0  0  0  0  0  0  0  0  0  0  0  0
    4.1979    8.6584   19.2665 C   0  0  0  0  0  0  0  0  0  0  0  0
    2.9238    9.3551   20.2302 S   0  0  0  0  0  0  0  0  0  0  0  0
    1.7389    8.2746   19.5801 C   0  0  0  0  0  0  0  0  0  0  0  0
    0.3506    8.3443   20.0367 C   0  0  0  0  0  0  0  0  0  0  0  0
   -0.5763    7.3698   19.6469 C   0  0  0  0  0  0  0  0  0  0  0  0
   -1.9058    7.4338   20.0662 C   0  0  0  0  0  0  0  0  0  0  0  0
   -2.3349    8.4786   20.8818 N   0  0  0  0  0  0  0  0  0  0  0  0
   -1.4296    9.4545   21.2890 C   0  0  0  0  0  0  0  0  0  0  0  0
   -0.1015    9.3812   20.8748 C   0  0  0  0  0  0  0  0  0  0  0  0
    2.3418    7.4328   18.6383 C   0  0  0  0  0  0  0  0  0  0  0  0
    3.7315    7.6167   18.4481 C   0  0  0  0  0  0  0  0  0  0  0  0
    4.5874    6.8933   17.4759 C   0  0  0  0  0  0  0  0  0  0  0  0
    5.7562    7.2250   17.2705 O   0  0  0  0  0  0  0  0  0  0  0  0
    4.0089    5.8966   16.7789 N   0  0  0  0  0  0  0  0  0  0  0  0
    4.6101    5.2946   15.5815 C   0  0  1  0  0  0  0  0  0  0  0  0
    4.2179    3.8124   15.4114 C   0  0  1  0  0  0  0  0  0  0  0  0
    4.7383    3.2340   14.0803 C   0  0  1  0  0  0  0  0  0  0  0  0
    4.3432    4.1015   12.8692 C   0  0  1  0  0  0  0  0  0  0  0  0
    4.7680    5.5311   13.0918 N   0  0  1  0  0  0  0  0  0  0  0  0
    4.2240    6.1472   14.3559 C   0  0  1  0  0  0  0  0  0  0  0  0
    7.8363   10.8901   20.4273 H   0  0  0  0  0  0  0  0  0  0  0  0
    7.7727    9.7256   19.1228 H   0  0  0  0  0  0  0  0  0  0  0  0
    6.1049    8.6907   18.6498 H   0  0  0  0  0  0  0  0  0  0  0  0
   -0.2963    6.5450   19.0091 H   0  0  0  0  0  0  0  0  0  0  0  0
   -2.6115    6.6759   19.7597 H   0  0  0  0  0  0  0  0  0  0  0  0
   -1.8219   10.2362   21.9225 H   0  0  0  0  0  0  0  0  0  0  0  0
    0.5697   10.1487   21.2291 H   0  0  0  0  0  0  0  0  0  0  0  0
    1.8137    6.6790   18.0735 H   0  0  0  0  0  0  0  0  0  0  0  0
    3.1185    5.5577   17.1103 H   0  0  0  0  0  0  0  0  0  0  0  0
    5.6952    5.3197   15.7001 H   0  0  0  0  0  0  0  0  0  0  0  0
    4.6387    3.2344   16.2352 H   0  0  0  0  0  0  0  0  0  0  0  0
    3.1366    3.6850   15.4766 H   0  0  0  0  0  0  0  0  0  0  0  0
    5.8241    3.1400   14.1158 H   0  0  0  0  0  0  0  0  0  0  0  0
    4.3486    2.2251   13.9382 H   0  0  0  0  0  0  0  0  0  0  0  0
    4.8109    3.7192   11.9607 H   0  0  0  0  0  0  0  0  0  0  0  0
    3.2649    4.0634   12.7120 H   0  0  0  0  0  0  0  0  0  0  0  0
    5.7769    5.5691   13.1304 H   0  0  0  0  0  0  0  0  0  0  0  0
    3.1401    6.2449   14.2830 H   0  0  0  0  0  0  0  0  0  0  0  0
    4.6211    7.1575   14.4650 H   0  0  0  0  0  0  0  0  0  0  0  0
    4.4531    6.0847   12.3086 H   0  0  0  0  0  0  0  0  0  0  0  0
  1  2  1  0
  1 25  1  0
  1 26  1  0
  2  3  2  0
  2  4  1  0
  4  5  1  0
  4 27  1  0
  5 15  2  0
  5  6  1  0
  6  7  1  0
  7  8  1  0
  7 14  2  0
  8 13  1  0
  8  9  2  0
  9 10  1  0
  9 28  1  0
 10 11  2  0
 10 29  1  0
 11 12  1  0
 12 13  2  0
 12 30  1  0
 13 31  1  0
 14 15  1  0
 14 32  1  0
 15 16  1  0
 16 17  2  0
 16 18  1  0
 18 19  1  0
 18 33  1  0
 19 24  1  0
 19 20  1  0
 19 34  1  1
 20 21  1  0
 20 35  1  1
 20 36  1  0
 21 22  1  0
 21 37  1  1
 21 38  1  0
 22 23  1  0
 22 39  1  6
 22 40  1  0
 23 24  1  0
 23 41  1  1
 23 44  1  0
 24 42  1  6
 24 43  1  0
M  CHG  1  23   1
M  END
