23863
     RDKit          3D

 44 46  0  0  1  0  0  0  0  0999 V2000
    7.3187   10.2240   19.8725 N   0  0  0  0  0  0  0  0  0  0  0  0
    6.0286   10.0275   20.1423 C   0  0  0  0  0  0  0  0  0  0  0  0
    5.4542   10.6343   21.0428 O   0  0  0  0  0  0  0  0  0  0  0  0
    5.4833    9.1060   19.3289 N   0  0  0  0  0  0  0  0  0  0  0  0
    4.1979    8.6584   19.2665 C   0  0  0  0  0  0  0  0  0  0  0  0
    2.9238    9.3551   20.2302 S   0  0  0  0  0  0  0  0  0  0  0  0
    1.7389    8.2746   19.5801 C   0  0  0  0  0  0  0  0  0  0  0  0
    0.3506    8.3443   20.0367 C   0  0  0  0  0  0  0  0  0  0  0  0
   -0.5763    7.3698   19.6469 C   0  0  0  0  0  0  0  0  0  0  0  0
   -1.9058    7.4338   20.0662 C   0  0  0  0  0  0  0  0  0  0  0  0
   -2.3349    8.4786   20.8818 C   0  0  0  0  0  0  0  0  0  0  0  0
   -1.4296    9.4545   21.2890 N   0  0  0  0  0  0  0  0  0  0  0  0
   -0.1015    9.3812   20.8748 C   0  0  0  0  0  0  0  0  0  0  0  0
    2.3418    7.4328   18.6383 C   0  0  0  0  0  0  0  0  0  0  0  0
    3.7315    7.6167   18.4481 C   0  0  0  0  0  0  0  0  0  0  0  0
    4.5874    6.8933   17.4759 C   0  0  0  0  0  0  0  0  0  0  0  0
    5.7562    7.2250   17.2705 O   0  0  0  0  0  0  0  0  0  0  0  0
    4.0089    5.8966   16.7789 N   0  0  0  0  0  0  0  0  0  0  0  0
    4.6101    5.2946   15.5815 C   0  0  1  0  0  0  0  0  0  0  0  0
    4.2179    3.8124   15.4114 C   0  0  1  0  0  0  0  0  0  0  0  0
    4.7383    3.2340   14.0803 C   0  0  1  0  0  0  0  0  0  0  0  0
    4.3432    4.1015   12.8692 C   0  0  1  0  0  0  0  0  0  0  0  0
    4.7680    5.5311   13.0918 N   0  0  1  0  0  0  0  0  0  0  0  0
    4.2240    6.1472   14.3559 C   0  0  1  0  0  0  0  0  0  0  0  0
    7.8355   10.8941   20.4228 H   0  0  0  0  0  0  0  0  0  0  0  0
    7.7751    9.7177   19.1288 H   0  0  0  0  0  0  0  0  0  0  0  0
    6.1069    8.6841   18.6561 H   0  0  0  0  0  0  0  0  0  0  0  0
   -0.2915    6.5405   19.0170 H   0  0  0  0  0  0  0  0  0  0  0  0
   -2.6168    6.6779   19.7675 H   0  0  0  0  0  0  0  0  0  0  0  0
   -3.3649    8.5366   21.2016 H   0  0  0  0  0  0  0  0  0  0  0  0
    0.5735   10.1528   21.2135 H   0  0  0  0  0  0  0  0  0  0  0  0
    1.8139    6.6829   18.0681 H   0  0  0  0  0  0  0  0  0  0  0  0
    3.1185    5.5581   17.1105 H   0  0  0  0  0  0  0  0  0  0  0  0
    5.6952    5.3194   15.6998 H   0  0  0  0  0  0  0  0  0  0  0  0
    4.6386    3.2344   16.2353 H   0  0  0  0  0  0  0  0  0  0  0  0
    3.1366    3.6853   15.4765 H   0  0  0  0  0  0  0  0  0  0  0  0
    5.8241    3.1400   14.1159 H   0  0  0  0  0  0  0  0  0  0  0  0
    4.3486    2.2251   13.9382 H   0  0  0  0  0  0  0  0  0  0  0  0
    4.8109    3.7192   11.9607 H   0  0  0  0  0  0  0  0  0  0  0  0
    3.2649    4.0634   12.7120 H   0  0  0  0  0  0  0  0  0  0  0  0
    5.7769    5.5692   13.1304 H   0  0  0  0  0  0  0  0  0  0  0  0
    3.1401    6.2449   14.2830 H   0  0  0  0  0  0  0  0  0  0  0  0
    4.6211    7.1575   14.4650 H   0  0  0  0  0  0  0  0  0  0  0  0
    4.4532    6.0848   12.3086 H   0  0  0  0  0  0  0  0  0  0  0  0
  1  2  1  0
  1 25  1  0
  1 26  1  0
  2  3  2  0
  2  4  1  0
  4  5  1  0
  4 27  1  0
  5 15  2  0
  5  6  1  0
  6  7  1  0
  7  8  1  0
  7 14  2  0
  8 13  1  0
  8  9  2  0
  9 10  1  0
  9 28  1  0
 10 11  2  0
 10 29  1  0
 11 12  1  0
 11 30  1  0
 12 13  2  0
 13 31  1  0
 14 15  1  0
 14 32  1  0
 15 16  1  0
 16 17  2  0
 16 18  1  0
 18 19  1  0
 18 33  1  0
 19 24  1  0
 19 20  1  0
 19 34  1  1
 20 21  1  0
 20 35  1  1
 20 36  1  0
 21 22  1  0
 21 37  1  1
 21 38  1  0
 22 23  1  0
 22 39  1  6
 22 40  1  0
 23 24  1  0
 23 41  1  1
 23 44  1  0
 24 42  1  6
 24 43  1  0
M  CHG  1  23   1
M  END
