ligand_6
     RDKit          3D

 42 44  0  0  1  0  0  0  0  0999 V2000
   -0.8628    9.0955   21.2476 Cl  0  0  0  0  0  0  0  0  0  0  0  0
    0.2966    8.1814   20.3566 C   0  0  0  0  0  0  0  0  0  0  0  0
    1.6059    8.6726   20.1892 C   0  0  0  0  0  0  0  0  0  0  0  0
    2.5621    7.9221   19.4601 C   0  0  0  0  0  0  0  0  0  0  0  0
    2.1942    6.6873   18.8809 C   0  0  0  0  0  0  0  0  0  0  0  0
    3.1525    6.0050   18.1595 O   0  0  0  0  0  0  0  0  0  0  0  0
    3.2236    4.6035   18.3877 C   0  0  1  0  0  0  0  0  0  0  0  0
    4.6215    4.0606   18.0109 C   0  0  1  0  0  0  0  0  0  0  0  0
    4.8278    3.6367   16.5283 C   0  0  1  0  0  0  0  0  0  0  0  0
    5.4629    4.6603   15.5612 C   0  0  1  0  0  0  0  0  0  0  0  0
    6.9524    4.9548   15.7793 C   0  0  1  0  0  0  0  0  0  0  0  0
    7.2004    5.5527   17.0534 O   0  0  0  0  0  0  0  0  0  0  0  0
    7.3010    6.9249   17.1697 C   0  0  0  0  0  0  0  0  0  0  0  0
    8.2795    7.7315   16.5160 C   0  0  0  0  0  0  0  0  0  0  0  0
    8.3841    9.0551   16.7843 N   0  0  0  0  0  0  0  0  0  0  0  0
    7.5603    9.5692   17.7186 C   0  0  0  0  0  0  0  0  0  0  0  0
    6.5979    8.7857   18.3955 C   0  0  0  0  0  0  0  0  0  0  0  0
    5.8640    9.4657   19.4036 N   0  0  0  0  0  0  0  0  0  0  0  0
    4.6130    9.3029   19.8489 C   0  0  0  0  0  0  0  0  0  0  0  0
    4.1812   10.0482   20.7186 O   0  0  0  0  0  0  0  0  0  0  0  0
    3.9113    8.3205   19.2629 N   0  0  0  0  0  0  0  0  0  0  0  0
    6.4648    7.4620   18.0992 N   0  0  0  0  0  0  0  0  0  0  0  0
    9.2729    7.1860   15.5989 C   0  0  0  0  0  0  0  0  0  0  0  0
   10.0597    6.7584   14.8657 N   0  0  0  0  0  0  0  0  0  0  0  0
    0.8745    6.1996   19.0581 C   0  0  0  0  0  0  0  0  0  0  0  0
   -0.0679    6.9450   19.7954 C   0  0  0  0  0  0  0  0  0  0  0  0
    1.8463    9.6224   20.6411 H   0  0  0  0  0  0  0  0  0  0  0  0
    3.0665    4.4202   19.4544 H   0  0  0  0  0  0  0  0  0  0  0  0
    2.4292    4.0810   17.8526 H   0  0  0  0  0  0  0  0  0  0  0  0
    5.3768    4.7611   18.3690 H   0  0  0  0  0  0  0  0  0  0  0  0
    4.7719    3.1660   18.6140 H   0  0  0  0  0  0  0  0  0  0  0  0
    5.4447    2.7352   16.5067 H   0  0  0  0  0  0  0  0  0  0  0  0
    3.8641    3.3413   16.1095 H   0  0  0  0  0  0  0  0  0  0  0  0
    5.3502    4.2714   14.5471 H   0  0  0  0  0  0  0  0  0  0  0  0
    4.8980    5.5934   15.6034 H   0  0  0  0  0  0  0  0  0  0  0  0
    7.5128    4.0235   15.7215 H   0  0  0  0  0  0  0  0  0  0  0  0
    7.2873    5.5696   14.9469 H   0  0  0  0  0  0  0  0  0  0  0  0
    7.6798   10.6258   17.9274 H   0  0  0  0  0  0  0  0  0  0  0  0
    6.3158   10.2629   19.8259 H   0  0  0  0  0  0  0  0  0  0  0  0
    4.4398    7.7271   18.6357 H   0  0  0  0  0  0  0  0  0  0  0  0
    0.5683    5.2611   18.6261 H   0  0  0  0  0  0  0  0  0  0  0  0
   -1.0735    6.5715   19.9338 H   0  0  0  0  0  0  0  0  0  0  0  0
  1  2  1  0
  2 26  1  0
  2  3  2  0
  3  4  1  0
  3 27  1  0
  4 21  1  0
  4  5  2  0
  5  6  1  0
  5 25  1  0
  6  7  1  0
  7  8  1  0
  7 28  1  1
  7 29  1  0
  8  9  1  0
  8 30  1  1
  8 31  1  0
  9 10  1  0
  9 32  1  1
  9 33  1  0
 10 11  1  0
 10 34  1  6
 10 35  1  0
 11 12  1  0
 11 36  1  1
 11 37  1  0
 12 13  1  0
 13 22  1  0
 13 14  2  0
 14 15  1  0
 14 23  1  0
 15 16  2  0
 16 17  1  0
 16 38  1  0
 17 18  1  0
 17 22  2  0
 18 19  1  0
 18 39  1  0
 19 20  2  0
 19 21  1  0
 21 40  1  0
 23 24  3  0
 25 26  2  0
 25 41  1  0
 26 42  1  0
M  END
