13
     RDKit          3D

 55 59  0  0  1  0  0  0  0  0999 V2000
    8.7499    9.1122   17.0454 O   0  0  0  0  0  0  0  0  0  0  0  0
    7.7997    8.4016   17.3167 C   0  0  0  0  0  0  0  0  0  0  0  0
    7.5779    7.1693   16.8413 N   0  0  0  0  0  0  0  0  0  0  0  0
    8.3689    6.3364   16.0194 C   0  0  0  0  0  0  0  0  0  0  0  0
    9.7668    6.4147   16.0004 C   0  0  0  0  0  0  0  0  0  0  0  0
   10.5150    5.4886   15.2816 C   0  0  0  0  0  0  0  0  0  0  0  0
    9.8750    4.4611   14.5948 C   0  0  0  0  0  0  0  0  0  0  0  0
    8.4863    4.3866   14.5828 C   0  0  0  0  0  0  0  0  0  0  0  0
    7.7150    5.3324   15.2703 C   0  0  0  0  0  0  0  0  0  0  0  0
    6.3049    5.3200   15.1815 N   0  0  0  0  0  0  0  0  0  0  0  0
    5.5929    4.0459   15.0839 C   0  0  1  0  0  0  0  0  0  0  0  0
    4.0683    4.2215   15.2729 C   0  0  1  0  0  0  0  0  0  0  0  0
    3.5568    5.3004   14.3496 N   0  0  1  0  0  0  0  0  0  0  0  0
    4.2943    6.6069   14.5125 C   0  0  1  0  0  0  0  0  0  0  0  0
    5.7975    6.3804   14.3095 C   0  0  1  0  0  0  0  0  0  0  0  0
    6.7295    8.9105   18.1454 C   0  0  0  0  0  0  0  0  0  0  0  0
    5.8700    7.7031   19.0406 S   0  0  0  0  0  0  0  0  0  0  0  0
    4.5893    8.8564   19.1224 C   0  0  0  0  0  0  0  0  0  0  0  0
    3.2593    8.3650   19.2578 C   0  0  0  0  0  0  0  0  0  0  0  0
    2.3586    9.0680   20.0544 C   0  0  0  0  0  0  0  0  0  0  0  0
    1.0320    8.6430   20.1908 C   0  0  0  0  0  0  0  0  0  0  0  0
    0.6250    7.5030   19.5069 C   0  0  0  0  0  0  0  0  0  0  0  0
   -0.6251    6.9563   19.4993 O   0  0  0  0  0  0  0  0  0  0  0  0
   -0.5992    5.8116   18.6486 C   0  0  1  0  0  0  0  0  0  0  0  0
    0.8289    5.6246   18.1023 C   0  0  1  0  0  0  0  0  0  0  0  0
    1.5146    6.8020   18.7268 C   0  0  0  0  0  0  0  0  0  0  0  0
    2.8359    7.2053   18.5813 C   0  0  0  0  0  0  0  0  0  0  0  0
    6.7749    6.6795   17.2081 H   0  0  0  0  0  0  0  0  0  0  0  0
   10.2914    7.1992   16.5238 H   0  0  0  0  0  0  0  0  0  0  0  0
   11.5916    5.5709   15.2516 H   0  0  0  0  0  0  0  0  0  0  0  0
   10.4571    3.7203   14.0665 H   0  0  0  0  0  0  0  0  0  0  0  0
    8.0209    3.5773   14.0410 H   0  0  0  0  0  0  0  0  0  0  0  0
    5.7887    3.6090   14.1035 H   0  0  0  0  0  0  0  0  0  0  0  0
    5.9657    3.3362   15.8234 H   0  0  0  0  0  0  0  0  0  0  0  0
    3.5490    3.2834   15.0760 H   0  0  0  0  0  0  0  0  0  0  0  0
    3.8498    4.4955   16.3058 H   0  0  0  0  0  0  0  0  0  0  0  0
    3.6773    4.9848   13.3978 H   0  0  0  0  0  0  0  0  0  0  0  0
    3.9079    7.3336   13.7975 H   0  0  0  0  0  0  0  0  0  0  0  0
    4.0966    7.0034   15.5095 H   0  0  0  0  0  0  0  0  0  0  0  0
    6.3351    7.3101   14.5011 H   0  0  0  0  0  0  0  0  0  0  0  0
    5.9728    6.1130   13.2669 H   0  0  0  0  0  0  0  0  0  0  0  0
    2.6650    9.9542   20.5903 H   0  0  0  0  0  0  0  0  0  0  0  0
    0.3382    9.1868   20.8147 H   0  0  0  0  0  0  0  0  0  0  0  0
   -0.8980    4.9367   19.2269 H   0  0  0  0  0  0  0  0  0  0  0  0
   -1.3138    5.9303   17.8336 H   0  0  0  0  0  0  0  0  0  0  0  0
    1.2740    4.6814   18.4201 H   0  0  0  0  0  0  0  0  0  0  0  0
    0.8613    5.6909   17.0144 H   0  0  0  0  0  0  0  0  0  0  0  0
    3.4978    6.6218   17.9595 H   0  0  0  0  0  0  0  0  0  0  0  0
    2.5726    5.4477   14.5226 H   0  0  0  0  0  0  0  0  0  0  0  0
    6.2257   10.1723   18.3460 C   0  0  0  0  0  0  0  0  0  0  0  0
    4.9549   10.1226   18.9136 N   0  0  0  0  0  0  0  0  0  0  0  0
    6.7937   11.4826   17.8943 C   0  0  1  0  0  0  0  0  0  0  0  0
    6.2913   12.3249   18.3698 H   0  0  0  0  0  0  0  0  0  0  0  0
    7.8541   11.5538   18.1379 H   0  0  0  0  0  0  0  0  0  0  0  0
    6.6962   11.6015   16.8152 H   0  0  0  0  0  0  0  0  0  0  0  0
  1  2  2  0
  2  3  1  0
  2 16  1  0
  3  4  1  0
  3 28  1  0
  4  9  1  0
  4  5  2  0
  5  6  1  0
  5 29  1  0
  6  7  2  0
  6 30  1  0
  7  8  1  0
  7 31  1  0
  8  9  2  0
  8 32  1  0
  9 10  1  0
 10 15  1  0
 10 11  1  0
 11 12  1  0
 11 33  1  6
 11 34  1  0
 12 13  1  0
 12 35  1  6
 12 36  1  0
 13 14  1  0
 13 37  1  6
 13 49  1  0
 14 15  1  0
 14 38  1  6
 14 39  1  0
 15 40  1  1
 15 41  1  0
 16 17  1  0
 16 50  2  0
 17 18  1  0
 18 19  1  0
 18 51  2  0
 19 27  1  0
 19 20  2  0
 20 21  1  0
 20 42  1  0
 21 22  2  0
 21 43  1  0
 22 26  1  0
 22 23  1  0
 23 24  1  0
 24 25  1  0
 24 44  1  1
 24 45  1  0
 25 26  1  0
 25 46  1  6
 25 47  1  0
 26 27  2  0
 27 48  1  0
 50 51  1  0
 50 52  1  0
 52 53  1  1
 52 54  1  0
 52 55  1  0
M  CHG  1  13   1
M  END
