15
     RDKit          3D

 50 54  0  0  1  0  0  0  0  0999 V2000
    8.7499    9.1122   17.0454 O   0  0  0  0  0  0  0  0  0  0  0  0
    7.7834    8.4108   17.3095 C   0  0  0  0  0  0  0  0  0  0  0  0
    7.5779    7.1693   16.8413 N   0  0  0  0  0  0  0  0  0  0  0  0
    8.3689    6.3364   16.0194 C   0  0  0  0  0  0  0  0  0  0  0  0
    9.7668    6.4147   16.0004 C   0  0  0  0  0  0  0  0  0  0  0  0
   10.5150    5.4886   15.2816 C   0  0  0  0  0  0  0  0  0  0  0  0
    9.8750    4.4611   14.5948 C   0  0  0  0  0  0  0  0  0  0  0  0
    8.4863    4.3866   14.5828 C   0  0  0  0  0  0  0  0  0  0  0  0
    7.7150    5.3324   15.2703 C   0  0  0  0  0  0  0  0  0  0  0  0
    6.3049    5.3200   15.1815 N   0  0  0  0  0  0  0  0  0  0  0  0
    5.5929    4.0459   15.0839 C   0  0  1  0  0  0  0  0  0  0  0  0
    4.0683    4.2215   15.2729 C   0  0  1  0  0  0  0  0  0  0  0  0
    3.5568    5.3004   14.3496 N   0  0  1  0  0  0  0  0  0  0  0  0
    4.2943    6.6069   14.5125 C   0  0  1  0  0  0  0  0  0  0  0  0
    5.7975    6.3804   14.3095 C   0  0  1  0  0  0  0  0  0  0  0  0
    6.6003    8.9294   18.0716 C   0  0  0  0  0  0  0  0  0  0  0  0
    4.6316    8.7907   18.9903 C   0  0  0  0  0  0  0  0  0  0  0  0
    3.2742    8.3636   19.2446 C   0  0  0  0  0  0  0  0  0  0  0  0
    2.3586    9.0680   20.0544 C   0  0  0  0  0  0  0  0  0  0  0  0
    1.0320    8.6430   20.1908 C   0  0  0  0  0  0  0  0  0  0  0  0
    0.6250    7.5030   19.5069 C   0  0  0  0  0  0  0  0  0  0  0  0
   -0.6251    6.9563   19.4993 O   0  0  0  0  0  0  0  0  0  0  0  0
   -0.5992    5.8116   18.6486 C   0  0  1  0  0  0  0  0  0  0  0  0
    1.5146    6.8020   18.7268 C   0  0  0  0  0  0  0  0  0  0  0  0
    2.8359    7.2053   18.5813 C   0  0  0  0  0  0  0  0  0  0  0  0
    6.7749    6.6795   17.2081 H   0  0  0  0  0  0  0  0  0  0  0  0
   10.2914    7.1992   16.5238 H   0  0  0  0  0  0  0  0  0  0  0  0
   11.5916    5.5709   15.2516 H   0  0  0  0  0  0  0  0  0  0  0  0
   10.4571    3.7203   14.0665 H   0  0  0  0  0  0  0  0  0  0  0  0
    8.0209    3.5773   14.0410 H   0  0  0  0  0  0  0  0  0  0  0  0
    5.7887    3.6090   14.1035 H   0  0  0  0  0  0  0  0  0  0  0  0
    5.9657    3.3362   15.8234 H   0  0  0  0  0  0  0  0  0  0  0  0
    3.5490    3.2834   15.0760 H   0  0  0  0  0  0  0  0  0  0  0  0
    3.8498    4.4955   16.3058 H   0  0  0  0  0  0  0  0  0  0  0  0
    3.6773    4.9848   13.3978 H   0  0  0  0  0  0  0  0  0  0  0  0
    3.9079    7.3336   13.7975 H   0  0  0  0  0  0  0  0  0  0  0  0
    4.0966    7.0034   15.5095 H   0  0  0  0  0  0  0  0  0  0  0  0
    6.3351    7.3101   14.5011 H   0  0  0  0  0  0  0  0  0  0  0  0
    5.9728    6.1130   13.2669 H   0  0  0  0  0  0  0  0  0  0  0  0
    2.6650    9.9542   20.5903 H   0  0  0  0  0  0  0  0  0  0  0  0
    0.3382    9.1868   20.8147 H   0  0  0  0  0  0  0  0  0  0  0  0
   -0.8980    4.9367   19.2269 H   0  0  0  0  0  0  0  0  0  0  0  0
   -1.3138    5.9303   17.8336 H   0  0  0  0  0  0  0  0  0  0  0  0
    3.4978    6.6218   17.9595 H   0  0  0  0  0  0  0  0  0  0  0  0
    2.5726    5.4477   14.5226 H   0  0  0  0  0  0  0  0  0  0  0  0
    5.7132    8.0161   18.7057 C   0  0  0  0  0  0  0  0  0  0  0  0
    6.1540   10.1739   18.1450 N   0  0  0  0  0  0  0  0  0  0  0  0
    4.8815   10.0952   18.7257 O   0  0  0  0  0  0  0  0  0  0  0  0
    5.7882    6.9470   18.8180 H   0  0  0  0  0  0  0  0  0  0  0  0
    0.7846    5.7090   18.1742 O   0  0  0  0  0  0  0  0  0  0  0  0
  1  2  2  0
  2  3  1  0
  2 16  1  0
  3  4  1  0
  3 26  1  0
  4  9  1  0
  4  5  2  0
  5  6  1  0
  5 27  1  0
  6  7  2  0
  6 28  1  0
  7  8  1  0
  7 29  1  0
  8  9  2  0
  8 30  1  0
  9 10  1  0
 10 15  1  0
 10 11  1  0
 11 12  1  0
 11 31  1  6
 11 32  1  0
 12 13  1  0
 12 33  1  6
 12 34  1  0
 13 14  1  0
 13 35  1  6
 13 45  1  0
 14 15  1  0
 14 36  1  6
 14 37  1  0
 15 38  1  1
 15 39  1  0
 16 46  1  0
 16 47  2  0
 17 18  1  0
 17 46  2  0
 17 48  1  0
 18 25  1  0
 18 19  2  0
 19 20  1  0
 19 40  1  0
 20 21  2  0
 20 41  1  0
 21 24  1  0
 21 22  1  0
 22 23  1  0
 23 42  1  1
 23 43  1  0
 23 50  1  0
 24 25  2  0
 24 50  1  0
 25 44  1  0
 46 49  1  0
 47 48  1  0
M  CHG  1  13   1
M  END
